file 3524855 1504298552                                         
version 2
run Scenario0-0-20170901-22:41:20-7208
attr configname Scenario0
attr datetime 20170901-22:41:20
attr experiment Scenario0
attr inifile omnetpp.ini
attr iterationvars ""
attr iterationvars2 $repetition=0
attr measurement ""
attr network simulations.Lora
attr processid 7208
attr repetition 0
attr replication #0
attr resultdir results
attr runnumber 0
attr seedset 0
param Lora.CR 4
param Lora.GL 0
param Lora.LpLd0 127.41
param Lora.bandwidth 125000
param Lora.d0 40.0
param Lora.endDevice[*].iaTime exponential(0.2s)
param Lora.endDevice[*].packetSize 20
param Lora.gamma 2.08
param Lora.minsensitivity -133.25
param Lora.numGateways 4
param Lora.numHosts 200
param Lora.spreadingFactor 12
param Lora.txPow 14

vector 0  Lora.gateway[0]  collision1:vector  ETV
attr source  collisionCH1
attr title  "collisionCH1, vector"
vector 1  Lora.gateway[0]  collision2:vector  ETV
attr source  collisionCH2
attr title  "collisionCH2, vector"
vector 2  Lora.gateway[0]  collision3:vector  ETV
attr source  collisionCH3
attr title  "collisionCH3, vector"
vector 3  Lora.gateway[0]  received1:vector  ETV
attr source  receivedCH1
attr title  "receivedCH1, vector"
vector 4  Lora.gateway[0]  received2:vector  ETV
attr source  receivedCH2
attr title  "receivedCH2, vector"
vector 5  Lora.gateway[0]  received3:vector  ETV
attr source  receivedCH3
attr title  "receivedCH3, vector"
vector 6  Lora.gateway[1]  collision1:vector  ETV
attr source  collisionCH1
attr title  "collisionCH1, vector"
vector 7  Lora.gateway[1]  collision2:vector  ETV
attr source  collisionCH2
attr title  "collisionCH2, vector"
vector 8  Lora.gateway[1]  collision3:vector  ETV
attr source  collisionCH3
attr title  "collisionCH3, vector"
vector 9  Lora.gateway[1]  received1:vector  ETV
attr source  receivedCH1
attr title  "receivedCH1, vector"
vector 10  Lora.gateway[1]  received2:vector  ETV
attr source  receivedCH2
attr title  "receivedCH2, vector"
vector 11  Lora.gateway[1]  received3:vector  ETV
attr source  receivedCH3
attr title  "receivedCH3, vector"
vector 12  Lora.gateway[2]  collision1:vector  ETV
attr source  collisionCH1
attr title  "collisionCH1, vector"
vector 13  Lora.gateway[2]  collision2:vector  ETV
attr source  collisionCH2
attr title  "collisionCH2, vector"
vector 14  Lora.gateway[2]  collision3:vector  ETV
attr source  collisionCH3
attr title  "collisionCH3, vector"
vector 15  Lora.gateway[2]  received1:vector  ETV
attr source  receivedCH1
attr title  "receivedCH1, vector"
vector 16  Lora.gateway[2]  received2:vector  ETV
attr source  receivedCH2
attr title  "receivedCH2, vector"
vector 17  Lora.gateway[2]  received3:vector  ETV
attr source  receivedCH3
attr title  "receivedCH3, vector"
vector 18  Lora.gateway[3]  collision1:vector  ETV
attr source  collisionCH1
attr title  "collisionCH1, vector"
vector 19  Lora.gateway[3]  collision2:vector  ETV
attr source  collisionCH2
attr title  "collisionCH2, vector"
vector 20  Lora.gateway[3]  collision3:vector  ETV
attr source  collisionCH3
attr title  "collisionCH3, vector"
vector 21  Lora.gateway[3]  received1:vector  ETV
attr source  receivedCH1
attr title  "receivedCH1, vector"
vector 22  Lora.gateway[3]  received2:vector  ETV
attr source  receivedCH2
attr title  "receivedCH2, vector"
vector 23  Lora.gateway[3]  received3:vector  ETV
attr source  receivedCH3
attr title  "receivedCH3, vector"
vector 24  Lora.endDevice[0]  CH1state:vector  ETV
attr enum  IDLE=0,BUSY=1,TRANSMITTING=2
attr source  state
attr title  "Channel_1 state, vector"
vector 25  Lora.endDevice[0]  usedCh:vector  ETV
attr source  usedChannel
attr title  "UsedChannel, vector"
vector 26  Lora.endDevice[0]  SentmessagesStats:vector  ETV
attr source  Sentmessages
attr title  "Sentmessages, vector"
vector 27  Lora.endDevice[0]  LostmessagesStats:vector  ETV
attr source  Lostmessages
attr title  "Lostmessages, vector"
vector 28  Lora.endDevice[1]  CH1state:vector  ETV
attr enum  IDLE=0,BUSY=1,TRANSMITTING=2
attr source  state
attr title  "Channel_1 state, vector"
vector 29  Lora.endDevice[1]  usedCh:vector  ETV
attr source  usedChannel
attr title  "UsedChannel, vector"
vector 30  Lora.endDevice[1]  SentmessagesStats:vector  ETV
attr source  Sentmessages
attr title  "Sentmessages, vector"
vector 31  Lora.endDevice[1]  LostmessagesStats:vector  ETV
attr source  Lostmessages
attr title  "Lostmessages, vector"
vector 32  Lora.endDevice[2]  CH1state:vector  ETV
attr enum  IDLE=0,BUSY=1,TRANSMITTING=2
attr source  state
attr title  "Channel_1 state, vector"
vector 33  Lora.endDevice[2]  usedCh:vector  ETV
attr source  usedChannel
attr title  "UsedChannel, vector"
vector 34  Lora.endDevice[2]  SentmessagesStats:vector  ETV
attr source  Sentmessages
attr title  "Sentmessages, vector"
vector 35  Lora.endDevice[2]  LostmessagesStats:vector  ETV
attr source  Lostmessages
attr title  "Lostmessages, vector"
vector 36  Lora.endDevice[3]  CH1state:vector  ETV
attr enum  IDLE=0,BUSY=1,TRANSMITTING=2
attr source  state
attr title  "Channel_1 state, vector"
vector 37  Lora.endDevice[3]  usedCh:vector  ETV
attr source  usedChannel
attr title  "UsedChannel, vector"
vector 38  Lora.endDevice[3]  SentmessagesStats:vector  ETV
attr source  Sentmessages
attr title  "Sentmessages, vector"
vector 39  Lora.endDevice[3]  LostmessagesStats:vector  ETV
attr source  Lostmessages
attr title  "Lostmessages, vector"
vector 40  Lora.endDevice[4]  CH1state:vector  ETV
attr enum  IDLE=0,BUSY=1,TRANSMITTING=2
attr source  state
attr title  "Channel_1 state, vector"
vector 41  Lora.endDevice[4]  usedCh:vector  ETV
attr source  usedChannel
attr title  "UsedChannel, vector"
vector 42  Lora.endDevice[4]  SentmessagesStats:vector  ETV
attr source  Sentmessages
attr title  "Sentmessages, vector"
vector 43  Lora.endDevice[4]  LostmessagesStats:vector  ETV
attr source  Lostmessages
attr title  "Lostmessages, vector"
vector 44  Lora.endDevice[5]  CH1state:vector  ETV
attr enum  IDLE=0,BUSY=1,TRANSMITTING=2
attr source  state
attr title  "Channel_1 state, vector"
vector 45  Lora.endDevice[5]  usedCh:vector  ETV
attr source  usedChannel
attr title  "UsedChannel, vector"
vector 46  Lora.endDevice[5]  SentmessagesStats:vector  ETV
attr source  Sentmessages
attr title  "Sentmessages, vector"
vector 47  Lora.endDevice[5]  LostmessagesStats:vector  ETV
attr source  Lostmessages
attr title  "Lostmessages, vector"
vector 48  Lora.endDevice[6]  CH1state:vector  ETV
attr enum  IDLE=0,BUSY=1,TRANSMITTING=2
attr source  state
attr title  "Channel_1 state, vector"
vector 49  Lora.endDevice[6]  usedCh:vector  ETV
attr source  usedChannel
attr title  "UsedChannel, vector"
vector 50  Lora.endDevice[6]  SentmessagesStats:vector  ETV
attr source  Sentmessages
attr title  "Sentmessages, vector"
vector 51  Lora.endDevice[6]  LostmessagesStats:vector  ETV
attr source  Lostmessages
attr title  "Lostmessages, vector"
vector 52  Lora.endDevice[7]  CH1state:vector  ETV
attr enum  IDLE=0,BUSY=1,TRANSMITTING=2
attr source  state
attr title  "Channel_1 state, vector"
vector 53  Lora.endDevice[7]  usedCh:vector  ETV
attr source  usedChannel
attr title  "UsedChannel, vector"
vector 54  Lora.endDevice[7]  SentmessagesStats:vector  ETV
attr source  Sentmessages
attr title  "Sentmessages, vector"
vector 55  Lora.endDevice[7]  LostmessagesStats:vector  ETV
attr source  Lostmessages
attr title  "Lostmessages, vector"
vector 56  Lora.endDevice[8]  CH1state:vector  ETV
attr enum  IDLE=0,BUSY=1,TRANSMITTING=2
attr source  state
attr title  "Channel_1 state, vector"
vector 57  Lora.endDevice[8]  usedCh:vector  ETV
attr source  usedChannel
attr title  "UsedChannel, vector"
vector 58  Lora.endDevice[8]  SentmessagesStats:vector  ETV
attr source  Sentmessages
attr title  "Sentmessages, vector"
vector 59  Lora.endDevice[8]  LostmessagesStats:vector  ETV
attr source  Lostmessages
attr title  "Lostmessages, vector"
vector 60  Lora.endDevice[9]  CH1state:vector  ETV
attr enum  IDLE=0,BUSY=1,TRANSMITTING=2
attr source  state
attr title  "Channel_1 state, vector"
vector 61  Lora.endDevice[9]  usedCh:vector  ETV
attr source  usedChannel
attr title  "UsedChannel, vector"
vector 62  Lora.endDevice[9]  SentmessagesStats:vector  ETV
attr source  Sentmessages
attr title  "Sentmessages, vector"
vector 63  Lora.endDevice[9]  LostmessagesStats:vector  ETV
attr source  Lostmessages
attr title  "Lostmessages, vector"
vector 64  Lora.endDevice[10]  CH1state:vector  ETV
attr enum  IDLE=0,BUSY=1,TRANSMITTING=2
attr source  state
attr title  "Channel_1 state, vector"
vector 65  Lora.endDevice[10]  usedCh:vector  ETV
attr source  usedChannel
attr title  "UsedChannel, vector"
vector 66  Lora.endDevice[10]  SentmessagesStats:vector  ETV
attr source  Sentmessages
attr title  "Sentmessages, vector"
vector 67  Lora.endDevice[10]  LostmessagesStats:vector  ETV
attr source  Lostmessages
attr title  "Lostmessages, vector"
vector 68  Lora.endDevice[11]  CH1state:vector  ETV
attr enum  IDLE=0,BUSY=1,TRANSMITTING=2
attr source  state
attr title  "Channel_1 state, vector"
vector 69  Lora.endDevice[11]  usedCh:vector  ETV
attr source  usedChannel
attr title  "UsedChannel, vector"
vector 70  Lora.endDevice[11]  SentmessagesStats:vector  ETV
attr source  Sentmessages
attr title  "Sentmessages, vector"
vector 71  Lora.endDevice[11]  LostmessagesStats:vector  ETV
attr source  Lostmessages
attr title  "Lostmessages, vector"
vector 72  Lora.endDevice[12]  CH1state:vector  ETV
attr enum  IDLE=0,BUSY=1,TRANSMITTING=2
attr source  state
attr title  "Channel_1 state, vector"
vector 73  Lora.endDevice[12]  usedCh:vector  ETV
attr source  usedChannel
attr title  "UsedChannel, vector"
vector 74  Lora.endDevice[12]  SentmessagesStats:vector  ETV
attr source  Sentmessages
attr title  "Sentmessages, vector"
vector 75  Lora.endDevice[12]  LostmessagesStats:vector  ETV
attr source  Lostmessages
attr title  "Lostmessages, vector"
vector 76  Lora.endDevice[13]  CH1state:vector  ETV
attr enum  IDLE=0,BUSY=1,TRANSMITTING=2
attr source  state
attr title  "Channel_1 state, vector"
vector 77  Lora.endDevice[13]  usedCh:vector  ETV
attr source  usedChannel
attr title  "UsedChannel, vector"
vector 78  Lora.endDevice[13]  SentmessagesStats:vector  ETV
attr source  Sentmessages
attr title  "Sentmessages, vector"
vector 79  Lora.endDevice[13]  LostmessagesStats:vector  ETV
attr source  Lostmessages
attr title  "Lostmessages, vector"
vector 80  Lora.endDevice[14]  CH1state:vector  ETV
attr enum  IDLE=0,BUSY=1,TRANSMITTING=2
attr source  state
attr title  "Channel_1 state, vector"
vector 81  Lora.endDevice[14]  usedCh:vector  ETV
attr source  usedChannel
attr title  "UsedChannel, vector"
vector 82  Lora.endDevice[14]  SentmessagesStats:vector  ETV
attr source  Sentmessages
attr title  "Sentmessages, vector"
vector 83  Lora.endDevice[14]  LostmessagesStats:vector  ETV
attr source  Lostmessages
attr title  "Lostmessages, vector"
vector 84  Lora.endDevice[15]  CH1state:vector  ETV
attr enum  IDLE=0,BUSY=1,TRANSMITTING=2
attr source  state
attr title  "Channel_1 state, vector"
vector 85  Lora.endDevice[15]  usedCh:vector  ETV
attr source  usedChannel
attr title  "UsedChannel, vector"
vector 86  Lora.endDevice[15]  SentmessagesStats:vector  ETV
attr source  Sentmessages
attr title  "Sentmessages, vector"
vector 87  Lora.endDevice[15]  LostmessagesStats:vector  ETV
attr source  Lostmessages
attr title  "Lostmessages, vector"
vector 88  Lora.endDevice[16]  CH1state:vector  ETV
attr enum  IDLE=0,BUSY=1,TRANSMITTING=2
attr source  state
attr title  "Channel_1 state, vector"
vector 89  Lora.endDevice[16]  usedCh:vector  ETV
attr source  usedChannel
attr title  "UsedChannel, vector"
vector 90  Lora.endDevice[16]  SentmessagesStats:vector  ETV
attr source  Sentmessages
attr title  "Sentmessages, vector"
vector 91  Lora.endDevice[16]  LostmessagesStats:vector  ETV
attr source  Lostmessages
attr title  "Lostmessages, vector"
vector 92  Lora.endDevice[17]  CH1state:vector  ETV
attr enum  IDLE=0,BUSY=1,TRANSMITTING=2
attr source  state
attr title  "Channel_1 state, vector"
vector 93  Lora.endDevice[17]  usedCh:vector  ETV
attr source  usedChannel
attr title  "UsedChannel, vector"
vector 94  Lora.endDevice[17]  SentmessagesStats:vector  ETV
attr source  Sentmessages
attr title  "Sentmessages, vector"
vector 95  Lora.endDevice[17]  LostmessagesStats:vector  ETV
attr source  Lostmessages
attr title  "Lostmessages, vector"
vector 96  Lora.endDevice[18]  CH1state:vector  ETV
attr enum  IDLE=0,BUSY=1,TRANSMITTING=2
attr source  state
attr title  "Channel_1 state, vector"
vector 97  Lora.endDevice[18]  usedCh:vector  ETV
attr source  usedChannel
attr title  "UsedChannel, vector"
vector 98  Lora.endDevice[18]  SentmessagesStats:vector  ETV
attr source  Sentmessages
attr title  "Sentmessages, vector"
vector 99  Lora.endDevice[18]  LostmessagesStats:vector  ETV
attr source  Lostmessages
attr title  "Lostmessages, vector"
vector 100  Lora.endDevice[19]  CH1state:vector  ETV
attr enum  IDLE=0,BUSY=1,TRANSMITTING=2
attr source  state
attr title  "Channel_1 state, vector"
vector 101  Lora.endDevice[19]  usedCh:vector  ETV
attr source  usedChannel
attr title  "UsedChannel, vector"
vector 102  Lora.endDevice[19]  SentmessagesStats:vector  ETV
attr source  Sentmessages
attr title  "Sentmessages, vector"
vector 103  Lora.endDevice[19]  LostmessagesStats:vector  ETV
attr source  Lostmessages
attr title  "Lostmessages, vector"
vector 104  Lora.endDevice[20]  CH1state:vector  ETV
attr enum  IDLE=0,BUSY=1,TRANSMITTING=2
attr source  state
attr title  "Channel_1 state, vector"
vector 105  Lora.endDevice[20]  usedCh:vector  ETV
attr source  usedChannel
attr title  "UsedChannel, vector"
vector 106  Lora.endDevice[20]  SentmessagesStats:vector  ETV
attr source  Sentmessages
attr title  "Sentmessages, vector"
vector 107  Lora.endDevice[20]  LostmessagesStats:vector  ETV
attr source  Lostmessages
attr title  "Lostmessages, vector"
vector 108  Lora.endDevice[21]  CH1state:vector  ETV
attr enum  IDLE=0,BUSY=1,TRANSMITTING=2
attr source  state
attr title  "Channel_1 state, vector"
vector 109  Lora.endDevice[21]  usedCh:vector  ETV
attr source  usedChannel
attr title  "UsedChannel, vector"
vector 110  Lora.endDevice[21]  SentmessagesStats:vector  ETV
attr source  Sentmessages
attr title  "Sentmessages, vector"
vector 111  Lora.endDevice[21]  LostmessagesStats:vector  ETV
attr source  Lostmessages
attr title  "Lostmessages, vector"
vector 112  Lora.endDevice[22]  CH1state:vector  ETV
attr enum  IDLE=0,BUSY=1,TRANSMITTING=2
attr source  state
attr title  "Channel_1 state, vector"
vector 113  Lora.endDevice[22]  usedCh:vector  ETV
attr source  usedChannel
attr title  "UsedChannel, vector"
vector 114  Lora.endDevice[22]  SentmessagesStats:vector  ETV
attr source  Sentmessages
attr title  "Sentmessages, vector"
vector 115  Lora.endDevice[22]  LostmessagesStats:vector  ETV
attr source  Lostmessages
attr title  "Lostmessages, vector"
vector 116  Lora.endDevice[23]  CH1state:vector  ETV
attr enum  IDLE=0,BUSY=1,TRANSMITTING=2
attr source  state
attr title  "Channel_1 state, vector"
vector 117  Lora.endDevice[23]  usedCh:vector  ETV
attr source  usedChannel
attr title  "UsedChannel, vector"
vector 118  Lora.endDevice[23]  SentmessagesStats:vector  ETV
attr source  Sentmessages
attr title  "Sentmessages, vector"
vector 119  Lora.endDevice[23]  LostmessagesStats:vector  ETV
attr source  Lostmessages
attr title  "Lostmessages, vector"
vector 120  Lora.endDevice[24]  CH1state:vector  ETV
attr enum  IDLE=0,BUSY=1,TRANSMITTING=2
attr source  state
attr title  "Channel_1 state, vector"
vector 121  Lora.endDevice[24]  usedCh:vector  ETV
attr source  usedChannel
attr title  "UsedChannel, vector"
vector 122  Lora.endDevice[24]  SentmessagesStats:vector  ETV
attr source  Sentmessages
attr title  "Sentmessages, vector"
vector 123  Lora.endDevice[24]  LostmessagesStats:vector  ETV
attr source  Lostmessages
attr title  "Lostmessages, vector"
vector 124  Lora.endDevice[25]  CH1state:vector  ETV
attr enum  IDLE=0,BUSY=1,TRANSMITTING=2
attr source  state
attr title  "Channel_1 state, vector"
vector 125  Lora.endDevice[25]  usedCh:vector  ETV
attr source  usedChannel
attr title  "UsedChannel, vector"
vector 126  Lora.endDevice[25]  SentmessagesStats:vector  ETV
attr source  Sentmessages
attr title  "Sentmessages, vector"
vector 127  Lora.endDevice[25]  LostmessagesStats:vector  ETV
attr source  Lostmessages
attr title  "Lostmessages, vector"
vector 128  Lora.endDevice[26]  CH1state:vector  ETV
attr enum  IDLE=0,BUSY=1,TRANSMITTING=2
attr source  state
attr title  "Channel_1 state, vector"
vector 129  Lora.endDevice[26]  usedCh:vector  ETV
attr source  usedChannel
attr title  "UsedChannel, vector"
vector 130  Lora.endDevice[26]  SentmessagesStats:vector  ETV
attr source  Sentmessages
attr title  "Sentmessages, vector"
vector 131  Lora.endDevice[26]  LostmessagesStats:vector  ETV
attr source  Lostmessages
attr title  "Lostmessages, vector"
vector 132  Lora.endDevice[27]  CH1state:vector  ETV
attr enum  IDLE=0,BUSY=1,TRANSMITTING=2
attr source  state
attr title  "Channel_1 state, vector"
vector 133  Lora.endDevice[27]  usedCh:vector  ETV
attr source  usedChannel
attr title  "UsedChannel, vector"
vector 134  Lora.endDevice[27]  SentmessagesStats:vector  ETV
attr source  Sentmessages
attr title  "Sentmessages, vector"
vector 135  Lora.endDevice[27]  LostmessagesStats:vector  ETV
attr source  Lostmessages
attr title  "Lostmessages, vector"
vector 136  Lora.endDevice[28]  CH1state:vector  ETV
attr enum  IDLE=0,BUSY=1,TRANSMITTING=2
attr source  state
attr title  "Channel_1 state, vector"
vector 137  Lora.endDevice[28]  usedCh:vector  ETV
attr source  usedChannel
attr title  "UsedChannel, vector"
vector 138  Lora.endDevice[28]  SentmessagesStats:vector  ETV
attr source  Sentmessages
attr title  "Sentmessages, vector"
vector 139  Lora.endDevice[28]  LostmessagesStats:vector  ETV
attr source  Lostmessages
attr title  "Lostmessages, vector"
vector 140  Lora.endDevice[29]  CH1state:vector  ETV
attr enum  IDLE=0,BUSY=1,TRANSMITTING=2
attr source  state
attr title  "Channel_1 state, vector"
vector 141  Lora.endDevice[29]  usedCh:vector  ETV
attr source  usedChannel
attr title  "UsedChannel, vector"
vector 142  Lora.endDevice[29]  SentmessagesStats:vector  ETV
attr source  Sentmessages
attr title  "Sentmessages, vector"
vector 143  Lora.endDevice[29]  LostmessagesStats:vector  ETV
attr source  Lostmessages
attr title  "Lostmessages, vector"
vector 144  Lora.endDevice[30]  CH1state:vector  ETV
attr enum  IDLE=0,BUSY=1,TRANSMITTING=2
attr source  state
attr title  "Channel_1 state, vector"
vector 145  Lora.endDevice[30]  usedCh:vector  ETV
attr source  usedChannel
attr title  "UsedChannel, vector"
vector 146  Lora.endDevice[30]  SentmessagesStats:vector  ETV
attr source  Sentmessages
attr title  "Sentmessages, vector"
vector 147  Lora.endDevice[30]  LostmessagesStats:vector  ETV
attr source  Lostmessages
attr title  "Lostmessages, vector"
vector 148  Lora.endDevice[31]  CH1state:vector  ETV
attr enum  IDLE=0,BUSY=1,TRANSMITTING=2
attr source  state
attr title  "Channel_1 state, vector"
vector 149  Lora.endDevice[31]  usedCh:vector  ETV
attr source  usedChannel
attr title  "UsedChannel, vector"
vector 150  Lora.endDevice[31]  SentmessagesStats:vector  ETV
attr source  Sentmessages
attr title  "Sentmessages, vector"
vector 151  Lora.endDevice[31]  LostmessagesStats:vector  ETV
attr source  Lostmessages
attr title  "Lostmessages, vector"
vector 152  Lora.endDevice[32]  CH1state:vector  ETV
attr enum  IDLE=0,BUSY=1,TRANSMITTING=2
attr source  state
attr title  "Channel_1 state, vector"
vector 153  Lora.endDevice[32]  usedCh:vector  ETV
attr source  usedChannel
attr title  "UsedChannel, vector"
vector 154  Lora.endDevice[32]  SentmessagesStats:vector  ETV
attr source  Sentmessages
attr title  "Sentmessages, vector"
vector 155  Lora.endDevice[32]  LostmessagesStats:vector  ETV
attr source  Lostmessages
attr title  "Lostmessages, vector"
vector 156  Lora.endDevice[33]  CH1state:vector  ETV
attr enum  IDLE=0,BUSY=1,TRANSMITTING=2
attr source  state
attr title  "Channel_1 state, vector"
vector 157  Lora.endDevice[33]  usedCh:vector  ETV
attr source  usedChannel
attr title  "UsedChannel, vector"
vector 158  Lora.endDevice[33]  SentmessagesStats:vector  ETV
attr source  Sentmessages
attr title  "Sentmessages, vector"
vector 159  Lora.endDevice[33]  LostmessagesStats:vector  ETV
attr source  Lostmessages
attr title  "Lostmessages, vector"
vector 160  Lora.endDevice[34]  CH1state:vector  ETV
attr enum  IDLE=0,BUSY=1,TRANSMITTING=2
attr source  state
attr title  "Channel_1 state, vector"
vector 161  Lora.endDevice[34]  usedCh:vector  ETV
attr source  usedChannel
attr title  "UsedChannel, vector"
vector 162  Lora.endDevice[34]  SentmessagesStats:vector  ETV
attr source  Sentmessages
attr title  "Sentmessages, vector"
vector 163  Lora.endDevice[34]  LostmessagesStats:vector  ETV
attr source  Lostmessages
attr title  "Lostmessages, vector"
vector 164  Lora.endDevice[35]  CH1state:vector  ETV
attr enum  IDLE=0,BUSY=1,TRANSMITTING=2
attr source  state
attr title  "Channel_1 state, vector"
vector 165  Lora.endDevice[35]  usedCh:vector  ETV
attr source  usedChannel
attr title  "UsedChannel, vector"
vector 166  Lora.endDevice[35]  SentmessagesStats:vector  ETV
attr source  Sentmessages
attr title  "Sentmessages, vector"
vector 167  Lora.endDevice[35]  LostmessagesStats:vector  ETV
attr source  Lostmessages
attr title  "Lostmessages, vector"
vector 168  Lora.endDevice[36]  CH1state:vector  ETV
attr enum  IDLE=0,BUSY=1,TRANSMITTING=2
attr source  state
attr title  "Channel_1 state, vector"
vector 169  Lora.endDevice[36]  usedCh:vector  ETV
attr source  usedChannel
attr title  "UsedChannel, vector"
vector 170  Lora.endDevice[36]  SentmessagesStats:vector  ETV
attr source  Sentmessages
attr title  "Sentmessages, vector"
vector 171  Lora.endDevice[36]  LostmessagesStats:vector  ETV
attr source  Lostmessages
attr title  "Lostmessages, vector"
vector 172  Lora.endDevice[37]  CH1state:vector  ETV
attr enum  IDLE=0,BUSY=1,TRANSMITTING=2
attr source  state
attr title  "Channel_1 state, vector"
vector 173  Lora.endDevice[37]  usedCh:vector  ETV
attr source  usedChannel
attr title  "UsedChannel, vector"
vector 174  Lora.endDevice[37]  SentmessagesStats:vector  ETV
attr source  Sentmessages
attr title  "Sentmessages, vector"
vector 175  Lora.endDevice[37]  LostmessagesStats:vector  ETV
attr source  Lostmessages
attr title  "Lostmessages, vector"
vector 176  Lora.endDevice[38]  CH1state:vector  ETV
attr enum  IDLE=0,BUSY=1,TRANSMITTING=2
attr source  state
attr title  "Channel_1 state, vector"
vector 177  Lora.endDevice[38]  usedCh:vector  ETV
attr source  usedChannel
attr title  "UsedChannel, vector"
vector 178  Lora.endDevice[38]  SentmessagesStats:vector  ETV
attr source  Sentmessages
attr title  "Sentmessages, vector"
vector 179  Lora.endDevice[38]  LostmessagesStats:vector  ETV
attr source  Lostmessages
attr title  "Lostmessages, vector"
vector 180  Lora.endDevice[39]  CH1state:vector  ETV
attr enum  IDLE=0,BUSY=1,TRANSMITTING=2
attr source  state
attr title  "Channel_1 state, vector"
vector 181  Lora.endDevice[39]  usedCh:vector  ETV
attr source  usedChannel
attr title  "UsedChannel, vector"
vector 182  Lora.endDevice[39]  SentmessagesStats:vector  ETV
attr source  Sentmessages
attr title  "Sentmessages, vector"
vector 183  Lora.endDevice[39]  LostmessagesStats:vector  ETV
attr source  Lostmessages
attr title  "Lostmessages, vector"
vector 184  Lora.endDevice[40]  CH1state:vector  ETV
attr enum  IDLE=0,BUSY=1,TRANSMITTING=2
attr source  state
attr title  "Channel_1 state, vector"
vector 185  Lora.endDevice[40]  usedCh:vector  ETV
attr source  usedChannel
attr title  "UsedChannel, vector"
vector 186  Lora.endDevice[40]  SentmessagesStats:vector  ETV
attr source  Sentmessages
attr title  "Sentmessages, vector"
vector 187  Lora.endDevice[40]  LostmessagesStats:vector  ETV
attr source  Lostmessages
attr title  "Lostmessages, vector"
vector 188  Lora.endDevice[41]  CH1state:vector  ETV
attr enum  IDLE=0,BUSY=1,TRANSMITTING=2
attr source  state
attr title  "Channel_1 state, vector"
vector 189  Lora.endDevice[41]  usedCh:vector  ETV
attr source  usedChannel
attr title  "UsedChannel, vector"
vector 190  Lora.endDevice[41]  SentmessagesStats:vector  ETV
attr source  Sentmessages
attr title  "Sentmessages, vector"
vector 191  Lora.endDevice[41]  LostmessagesStats:vector  ETV
attr source  Lostmessages
attr title  "Lostmessages, vector"
vector 192  Lora.endDevice[42]  CH1state:vector  ETV
attr enum  IDLE=0,BUSY=1,TRANSMITTING=2
attr source  state
attr title  "Channel_1 state, vector"
vector 193  Lora.endDevice[42]  usedCh:vector  ETV
attr source  usedChannel
attr title  "UsedChannel, vector"
vector 194  Lora.endDevice[42]  SentmessagesStats:vector  ETV
attr source  Sentmessages
attr title  "Sentmessages, vector"
vector 195  Lora.endDevice[42]  LostmessagesStats:vector  ETV
attr source  Lostmessages
attr title  "Lostmessages, vector"
vector 196  Lora.endDevice[43]  CH1state:vector  ETV
attr enum  IDLE=0,BUSY=1,TRANSMITTING=2
attr source  state
attr title  "Channel_1 state, vector"
vector 197  Lora.endDevice[43]  usedCh:vector  ETV
attr source  usedChannel
attr title  "UsedChannel, vector"
vector 198  Lora.endDevice[43]  SentmessagesStats:vector  ETV
attr source  Sentmessages
attr title  "Sentmessages, vector"
vector 199  Lora.endDevice[43]  LostmessagesStats:vector  ETV
attr source  Lostmessages
attr title  "Lostmessages, vector"
vector 200  Lora.endDevice[44]  CH1state:vector  ETV
attr enum  IDLE=0,BUSY=1,TRANSMITTING=2
attr source  state
attr title  "Channel_1 state, vector"
vector 201  Lora.endDevice[44]  usedCh:vector  ETV
attr source  usedChannel
attr title  "UsedChannel, vector"
vector 202  Lora.endDevice[44]  SentmessagesStats:vector  ETV
attr source  Sentmessages
attr title  "Sentmessages, vector"
vector 203  Lora.endDevice[44]  LostmessagesStats:vector  ETV
attr source  Lostmessages
attr title  "Lostmessages, vector"
vector 204  Lora.endDevice[45]  CH1state:vector  ETV
attr enum  IDLE=0,BUSY=1,TRANSMITTING=2
attr source  state
attr title  "Channel_1 state, vector"
vector 205  Lora.endDevice[45]  usedCh:vector  ETV
attr source  usedChannel
attr title  "UsedChannel, vector"
vector 206  Lora.endDevice[45]  SentmessagesStats:vector  ETV
attr source  Sentmessages
attr title  "Sentmessages, vector"
vector 207  Lora.endDevice[45]  LostmessagesStats:vector  ETV
attr source  Lostmessages
attr title  "Lostmessages, vector"
vector 208  Lora.endDevice[46]  CH1state:vector  ETV
attr enum  IDLE=0,BUSY=1,TRANSMITTING=2
attr source  state
attr title  "Channel_1 state, vector"
vector 209  Lora.endDevice[46]  usedCh:vector  ETV
attr source  usedChannel
attr title  "UsedChannel, vector"
vector 210  Lora.endDevice[46]  SentmessagesStats:vector  ETV
attr source  Sentmessages
attr title  "Sentmessages, vector"
vector 211  Lora.endDevice[46]  LostmessagesStats:vector  ETV
attr source  Lostmessages
attr title  "Lostmessages, vector"
vector 212  Lora.endDevice[47]  CH1state:vector  ETV
attr enum  IDLE=0,BUSY=1,TRANSMITTING=2
attr source  state
attr title  "Channel_1 state, vector"
vector 213  Lora.endDevice[47]  usedCh:vector  ETV
attr source  usedChannel
attr title  "UsedChannel, vector"
vector 214  Lora.endDevice[47]  SentmessagesStats:vector  ETV
attr source  Sentmessages
attr title  "Sentmessages, vector"
vector 215  Lora.endDevice[47]  LostmessagesStats:vector  ETV
attr source  Lostmessages
attr title  "Lostmessages, vector"
vector 216  Lora.endDevice[48]  CH1state:vector  ETV
attr enum  IDLE=0,BUSY=1,TRANSMITTING=2
attr source  state
attr title  "Channel_1 state, vector"
vector 217  Lora.endDevice[48]  usedCh:vector  ETV
attr source  usedChannel
attr title  "UsedChannel, vector"
vector 218  Lora.endDevice[48]  SentmessagesStats:vector  ETV
attr source  Sentmessages
attr title  "Sentmessages, vector"
vector 219  Lora.endDevice[48]  LostmessagesStats:vector  ETV
attr source  Lostmessages
attr title  "Lostmessages, vector"
vector 220  Lora.endDevice[49]  CH1state:vector  ETV
attr enum  IDLE=0,BUSY=1,TRANSMITTING=2
attr source  state
attr title  "Channel_1 state, vector"
vector 221  Lora.endDevice[49]  usedCh:vector  ETV
attr source  usedChannel
attr title  "UsedChannel, vector"
vector 222  Lora.endDevice[49]  SentmessagesStats:vector  ETV
attr source  Sentmessages
attr title  "Sentmessages, vector"
vector 223  Lora.endDevice[49]  LostmessagesStats:vector  ETV
attr source  Lostmessages
attr title  "Lostmessages, vector"
vector 224  Lora.endDevice[50]  CH1state:vector  ETV
attr enum  IDLE=0,BUSY=1,TRANSMITTING=2
attr source  state
attr title  "Channel_1 state, vector"
vector 225  Lora.endDevice[50]  usedCh:vector  ETV
attr source  usedChannel
attr title  "UsedChannel, vector"
vector 226  Lora.endDevice[50]  SentmessagesStats:vector  ETV
attr source  Sentmessages
attr title  "Sentmessages, vector"
vector 227  Lora.endDevice[50]  LostmessagesStats:vector  ETV
attr source  Lostmessages
attr title  "Lostmessages, vector"
vector 228  Lora.endDevice[51]  CH1state:vector  ETV
attr enum  IDLE=0,BUSY=1,TRANSMITTING=2
attr source  state
attr title  "Channel_1 state, vector"
vector 229  Lora.endDevice[51]  usedCh:vector  ETV
attr source  usedChannel
attr title  "UsedChannel, vector"
vector 230  Lora.endDevice[51]  SentmessagesStats:vector  ETV
attr source  Sentmessages
attr title  "Sentmessages, vector"
vector 231  Lora.endDevice[51]  LostmessagesStats:vector  ETV
attr source  Lostmessages
attr title  "Lostmessages, vector"
vector 232  Lora.endDevice[52]  CH1state:vector  ETV
attr enum  IDLE=0,BUSY=1,TRANSMITTING=2
attr source  state
attr title  "Channel_1 state, vector"
vector 233  Lora.endDevice[52]  usedCh:vector  ETV
attr source  usedChannel
attr title  "UsedChannel, vector"
vector 234  Lora.endDevice[52]  SentmessagesStats:vector  ETV
attr source  Sentmessages
attr title  "Sentmessages, vector"
vector 235  Lora.endDevice[52]  LostmessagesStats:vector  ETV
attr source  Lostmessages
attr title  "Lostmessages, vector"
vector 236  Lora.endDevice[53]  CH1state:vector  ETV
attr enum  IDLE=0,BUSY=1,TRANSMITTING=2
attr source  state
attr title  "Channel_1 state, vector"
vector 237  Lora.endDevice[53]  usedCh:vector  ETV
attr source  usedChannel
attr title  "UsedChannel, vector"
vector 238  Lora.endDevice[53]  SentmessagesStats:vector  ETV
attr source  Sentmessages
attr title  "Sentmessages, vector"
vector 239  Lora.endDevice[53]  LostmessagesStats:vector  ETV
attr source  Lostmessages
attr title  "Lostmessages, vector"
vector 240  Lora.endDevice[54]  CH1state:vector  ETV
attr enum  IDLE=0,BUSY=1,TRANSMITTING=2
attr source  state
attr title  "Channel_1 state, vector"
vector 241  Lora.endDevice[54]  usedCh:vector  ETV
attr source  usedChannel
attr title  "UsedChannel, vector"
vector 242  Lora.endDevice[54]  SentmessagesStats:vector  ETV
attr source  Sentmessages
attr title  "Sentmessages, vector"
vector 243  Lora.endDevice[54]  LostmessagesStats:vector  ETV
attr source  Lostmessages
attr title  "Lostmessages, vector"
vector 244  Lora.endDevice[55]  CH1state:vector  ETV
attr enum  IDLE=0,BUSY=1,TRANSMITTING=2
attr source  state
attr title  "Channel_1 state, vector"
vector 245  Lora.endDevice[55]  usedCh:vector  ETV
attr source  usedChannel
attr title  "UsedChannel, vector"
vector 246  Lora.endDevice[55]  SentmessagesStats:vector  ETV
attr source  Sentmessages
attr title  "Sentmessages, vector"
vector 247  Lora.endDevice[55]  LostmessagesStats:vector  ETV
attr source  Lostmessages
attr title  "Lostmessages, vector"
vector 248  Lora.endDevice[56]  CH1state:vector  ETV
attr enum  IDLE=0,BUSY=1,TRANSMITTING=2
attr source  state
attr title  "Channel_1 state, vector"
vector 249  Lora.endDevice[56]  usedCh:vector  ETV
attr source  usedChannel
attr title  "UsedChannel, vector"
vector 250  Lora.endDevice[56]  SentmessagesStats:vector  ETV
attr source  Sentmessages
attr title  "Sentmessages, vector"
vector 251  Lora.endDevice[56]  LostmessagesStats:vector  ETV
attr source  Lostmessages
attr title  "Lostmessages, vector"
vector 252  Lora.endDevice[57]  CH1state:vector  ETV
attr enum  IDLE=0,BUSY=1,TRANSMITTING=2
attr source  state
attr title  "Channel_1 state, vector"
vector 253  Lora.endDevice[57]  usedCh:vector  ETV
attr source  usedChannel
attr title  "UsedChannel, vector"
vector 254  Lora.endDevice[57]  SentmessagesStats:vector  ETV
attr source  Sentmessages
attr title  "Sentmessages, vector"
vector 255  Lora.endDevice[57]  LostmessagesStats:vector  ETV
attr source  Lostmessages
attr title  "Lostmessages, vector"
vector 256  Lora.endDevice[58]  CH1state:vector  ETV
attr enum  IDLE=0,BUSY=1,TRANSMITTING=2
attr source  state
attr title  "Channel_1 state, vector"
vector 257  Lora.endDevice[58]  usedCh:vector  ETV
attr source  usedChannel
attr title  "UsedChannel, vector"
vector 258  Lora.endDevice[58]  SentmessagesStats:vector  ETV
attr source  Sentmessages
attr title  "Sentmessages, vector"
vector 259  Lora.endDevice[58]  LostmessagesStats:vector  ETV
attr source  Lostmessages
attr title  "Lostmessages, vector"
vector 260  Lora.endDevice[59]  CH1state:vector  ETV
attr enum  IDLE=0,BUSY=1,TRANSMITTING=2
attr source  state
attr title  "Channel_1 state, vector"
vector 261  Lora.endDevice[59]  usedCh:vector  ETV
attr source  usedChannel
attr title  "UsedChannel, vector"
vector 262  Lora.endDevice[59]  SentmessagesStats:vector  ETV
attr source  Sentmessages
attr title  "Sentmessages, vector"
vector 263  Lora.endDevice[59]  LostmessagesStats:vector  ETV
attr source  Lostmessages
attr title  "Lostmessages, vector"
vector 264  Lora.endDevice[60]  CH1state:vector  ETV
attr enum  IDLE=0,BUSY=1,TRANSMITTING=2
attr source  state
attr title  "Channel_1 state, vector"
vector 265  Lora.endDevice[60]  usedCh:vector  ETV
attr source  usedChannel
attr title  "UsedChannel, vector"
vector 266  Lora.endDevice[60]  SentmessagesStats:vector  ETV
attr source  Sentmessages
attr title  "Sentmessages, vector"
vector 267  Lora.endDevice[60]  LostmessagesStats:vector  ETV
attr source  Lostmessages
attr title  "Lostmessages, vector"
vector 268  Lora.endDevice[61]  CH1state:vector  ETV
attr enum  IDLE=0,BUSY=1,TRANSMITTING=2
attr source  state
attr title  "Channel_1 state, vector"
vector 269  Lora.endDevice[61]  usedCh:vector  ETV
attr source  usedChannel
attr title  "UsedChannel, vector"
vector 270  Lora.endDevice[61]  SentmessagesStats:vector  ETV
attr source  Sentmessages
attr title  "Sentmessages, vector"
vector 271  Lora.endDevice[61]  LostmessagesStats:vector  ETV
attr source  Lostmessages
attr title  "Lostmessages, vector"
vector 272  Lora.endDevice[62]  CH1state:vector  ETV
attr enum  IDLE=0,BUSY=1,TRANSMITTING=2
attr source  state
attr title  "Channel_1 state, vector"
vector 273  Lora.endDevice[62]  usedCh:vector  ETV
attr source  usedChannel
attr title  "UsedChannel, vector"
vector 274  Lora.endDevice[62]  SentmessagesStats:vector  ETV
attr source  Sentmessages
attr title  "Sentmessages, vector"
vector 275  Lora.endDevice[62]  LostmessagesStats:vector  ETV
attr source  Lostmessages
attr title  "Lostmessages, vector"
vector 276  Lora.endDevice[63]  CH1state:vector  ETV
attr enum  IDLE=0,BUSY=1,TRANSMITTING=2
attr source  state
attr title  "Channel_1 state, vector"
vector 277  Lora.endDevice[63]  usedCh:vector  ETV
attr source  usedChannel
attr title  "UsedChannel, vector"
vector 278  Lora.endDevice[63]  SentmessagesStats:vector  ETV
attr source  Sentmessages
attr title  "Sentmessages, vector"
vector 279  Lora.endDevice[63]  LostmessagesStats:vector  ETV
attr source  Lostmessages
attr title  "Lostmessages, vector"
vector 280  Lora.endDevice[64]  CH1state:vector  ETV
attr enum  IDLE=0,BUSY=1,TRANSMITTING=2
attr source  state
attr title  "Channel_1 state, vector"
vector 281  Lora.endDevice[64]  usedCh:vector  ETV
attr source  usedChannel
attr title  "UsedChannel, vector"
vector 282  Lora.endDevice[64]  SentmessagesStats:vector  ETV
attr source  Sentmessages
attr title  "Sentmessages, vector"
vector 283  Lora.endDevice[64]  LostmessagesStats:vector  ETV
attr source  Lostmessages
attr title  "Lostmessages, vector"
vector 284  Lora.endDevice[65]  CH1state:vector  ETV
attr enum  IDLE=0,BUSY=1,TRANSMITTING=2
attr source  state
attr title  "Channel_1 state, vector"
vector 285  Lora.endDevice[65]  usedCh:vector  ETV
attr source  usedChannel
attr title  "UsedChannel, vector"
vector 286  Lora.endDevice[65]  SentmessagesStats:vector  ETV
attr source  Sentmessages
attr title  "Sentmessages, vector"
vector 287  Lora.endDevice[65]  LostmessagesStats:vector  ETV
attr source  Lostmessages
attr title  "Lostmessages, vector"
vector 288  Lora.endDevice[66]  CH1state:vector  ETV
attr enum  IDLE=0,BUSY=1,TRANSMITTING=2
attr source  state
attr title  "Channel_1 state, vector"
vector 289  Lora.endDevice[66]  usedCh:vector  ETV
attr source  usedChannel
attr title  "UsedChannel, vector"
vector 290  Lora.endDevice[66]  SentmessagesStats:vector  ETV
attr source  Sentmessages
attr title  "Sentmessages, vector"
vector 291  Lora.endDevice[66]  LostmessagesStats:vector  ETV
attr source  Lostmessages
attr title  "Lostmessages, vector"
vector 292  Lora.endDevice[67]  CH1state:vector  ETV
attr enum  IDLE=0,BUSY=1,TRANSMITTING=2
attr source  state
attr title  "Channel_1 state, vector"
vector 293  Lora.endDevice[67]  usedCh:vector  ETV
attr source  usedChannel
attr title  "UsedChannel, vector"
vector 294  Lora.endDevice[67]  SentmessagesStats:vector  ETV
attr source  Sentmessages
attr title  "Sentmessages, vector"
vector 295  Lora.endDevice[67]  LostmessagesStats:vector  ETV
attr source  Lostmessages
attr title  "Lostmessages, vector"
vector 296  Lora.endDevice[68]  CH1state:vector  ETV
attr enum  IDLE=0,BUSY=1,TRANSMITTING=2
attr source  state
attr title  "Channel_1 state, vector"
vector 297  Lora.endDevice[68]  usedCh:vector  ETV
attr source  usedChannel
attr title  "UsedChannel, vector"
vector 298  Lora.endDevice[68]  SentmessagesStats:vector  ETV
attr source  Sentmessages
attr title  "Sentmessages, vector"
vector 299  Lora.endDevice[68]  LostmessagesStats:vector  ETV
attr source  Lostmessages
attr title  "Lostmessages, vector"
vector 300  Lora.endDevice[69]  CH1state:vector  ETV
attr enum  IDLE=0,BUSY=1,TRANSMITTING=2
attr source  state
attr title  "Channel_1 state, vector"
vector 301  Lora.endDevice[69]  usedCh:vector  ETV
attr source  usedChannel
attr title  "UsedChannel, vector"
vector 302  Lora.endDevice[69]  SentmessagesStats:vector  ETV
attr source  Sentmessages
attr title  "Sentmessages, vector"
vector 303  Lora.endDevice[69]  LostmessagesStats:vector  ETV
attr source  Lostmessages
attr title  "Lostmessages, vector"
vector 304  Lora.endDevice[70]  CH1state:vector  ETV
attr enum  IDLE=0,BUSY=1,TRANSMITTING=2
attr source  state
attr title  "Channel_1 state, vector"
vector 305  Lora.endDevice[70]  usedCh:vector  ETV
attr source  usedChannel
attr title  "UsedChannel, vector"
vector 306  Lora.endDevice[70]  SentmessagesStats:vector  ETV
attr source  Sentmessages
attr title  "Sentmessages, vector"
vector 307  Lora.endDevice[70]  LostmessagesStats:vector  ETV
attr source  Lostmessages
attr title  "Lostmessages, vector"
vector 308  Lora.endDevice[71]  CH1state:vector  ETV
attr enum  IDLE=0,BUSY=1,TRANSMITTING=2
attr source  state
attr title  "Channel_1 state, vector"
vector 309  Lora.endDevice[71]  usedCh:vector  ETV
attr source  usedChannel
attr title  "UsedChannel, vector"
vector 310  Lora.endDevice[71]  SentmessagesStats:vector  ETV
attr source  Sentmessages
attr title  "Sentmessages, vector"
vector 311  Lora.endDevice[71]  LostmessagesStats:vector  ETV
attr source  Lostmessages
attr title  "Lostmessages, vector"
vector 312  Lora.endDevice[72]  CH1state:vector  ETV
attr enum  IDLE=0,BUSY=1,TRANSMITTING=2
attr source  state
attr title  "Channel_1 state, vector"
vector 313  Lora.endDevice[72]  usedCh:vector  ETV
attr source  usedChannel
attr title  "UsedChannel, vector"
vector 314  Lora.endDevice[72]  SentmessagesStats:vector  ETV
attr source  Sentmessages
attr title  "Sentmessages, vector"
vector 315  Lora.endDevice[72]  LostmessagesStats:vector  ETV
attr source  Lostmessages
attr title  "Lostmessages, vector"
vector 316  Lora.endDevice[73]  CH1state:vector  ETV
attr enum  IDLE=0,BUSY=1,TRANSMITTING=2
attr source  state
attr title  "Channel_1 state, vector"
vector 317  Lora.endDevice[73]  usedCh:vector  ETV
attr source  usedChannel
attr title  "UsedChannel, vector"
vector 318  Lora.endDevice[73]  SentmessagesStats:vector  ETV
attr source  Sentmessages
attr title  "Sentmessages, vector"
vector 319  Lora.endDevice[73]  LostmessagesStats:vector  ETV
attr source  Lostmessages
attr title  "Lostmessages, vector"
vector 320  Lora.endDevice[74]  CH1state:vector  ETV
attr enum  IDLE=0,BUSY=1,TRANSMITTING=2
attr source  state
attr title  "Channel_1 state, vector"
vector 321  Lora.endDevice[74]  usedCh:vector  ETV
attr source  usedChannel
attr title  "UsedChannel, vector"
vector 322  Lora.endDevice[74]  SentmessagesStats:vector  ETV
attr source  Sentmessages
attr title  "Sentmessages, vector"
vector 323  Lora.endDevice[74]  LostmessagesStats:vector  ETV
attr source  Lostmessages
attr title  "Lostmessages, vector"
vector 324  Lora.endDevice[75]  CH1state:vector  ETV
attr enum  IDLE=0,BUSY=1,TRANSMITTING=2
attr source  state
attr title  "Channel_1 state, vector"
vector 325  Lora.endDevice[75]  usedCh:vector  ETV
attr source  usedChannel
attr title  "UsedChannel, vector"
vector 326  Lora.endDevice[75]  SentmessagesStats:vector  ETV
attr source  Sentmessages
attr title  "Sentmessages, vector"
vector 327  Lora.endDevice[75]  LostmessagesStats:vector  ETV
attr source  Lostmessages
attr title  "Lostmessages, vector"
vector 328  Lora.endDevice[76]  CH1state:vector  ETV
attr enum  IDLE=0,BUSY=1,TRANSMITTING=2
attr source  state
attr title  "Channel_1 state, vector"
vector 329  Lora.endDevice[76]  usedCh:vector  ETV
attr source  usedChannel
attr title  "UsedChannel, vector"
vector 330  Lora.endDevice[76]  SentmessagesStats:vector  ETV
attr source  Sentmessages
attr title  "Sentmessages, vector"
vector 331  Lora.endDevice[76]  LostmessagesStats:vector  ETV
attr source  Lostmessages
attr title  "Lostmessages, vector"
vector 332  Lora.endDevice[77]  CH1state:vector  ETV
attr enum  IDLE=0,BUSY=1,TRANSMITTING=2
attr source  state
attr title  "Channel_1 state, vector"
vector 333  Lora.endDevice[77]  usedCh:vector  ETV
attr source  usedChannel
attr title  "UsedChannel, vector"
vector 334  Lora.endDevice[77]  SentmessagesStats:vector  ETV
attr source  Sentmessages
attr title  "Sentmessages, vector"
vector 335  Lora.endDevice[77]  LostmessagesStats:vector  ETV
attr source  Lostmessages
attr title  "Lostmessages, vector"
vector 336  Lora.endDevice[78]  CH1state:vector  ETV
attr enum  IDLE=0,BUSY=1,TRANSMITTING=2
attr source  state
attr title  "Channel_1 state, vector"
vector 337  Lora.endDevice[78]  usedCh:vector  ETV
attr source  usedChannel
attr title  "UsedChannel, vector"
vector 338  Lora.endDevice[78]  SentmessagesStats:vector  ETV
attr source  Sentmessages
attr title  "Sentmessages, vector"
vector 339  Lora.endDevice[78]  LostmessagesStats:vector  ETV
attr source  Lostmessages
attr title  "Lostmessages, vector"
vector 340  Lora.endDevice[79]  CH1state:vector  ETV
attr enum  IDLE=0,BUSY=1,TRANSMITTING=2
attr source  state
attr title  "Channel_1 state, vector"
vector 341  Lora.endDevice[79]  usedCh:vector  ETV
attr source  usedChannel
attr title  "UsedChannel, vector"
vector 342  Lora.endDevice[79]  SentmessagesStats:vector  ETV
attr source  Sentmessages
attr title  "Sentmessages, vector"
vector 343  Lora.endDevice[79]  LostmessagesStats:vector  ETV
attr source  Lostmessages
attr title  "Lostmessages, vector"
vector 344  Lora.endDevice[80]  CH1state:vector  ETV
attr enum  IDLE=0,BUSY=1,TRANSMITTING=2
attr source  state
attr title  "Channel_1 state, vector"
vector 345  Lora.endDevice[80]  usedCh:vector  ETV
attr source  usedChannel
attr title  "UsedChannel, vector"
vector 346  Lora.endDevice[80]  SentmessagesStats:vector  ETV
attr source  Sentmessages
attr title  "Sentmessages, vector"
vector 347  Lora.endDevice[80]  LostmessagesStats:vector  ETV
attr source  Lostmessages
attr title  "Lostmessages, vector"
vector 348  Lora.endDevice[81]  CH1state:vector  ETV
attr enum  IDLE=0,BUSY=1,TRANSMITTING=2
attr source  state
attr title  "Channel_1 state, vector"
vector 349  Lora.endDevice[81]  usedCh:vector  ETV
attr source  usedChannel
attr title  "UsedChannel, vector"
vector 350  Lora.endDevice[81]  SentmessagesStats:vector  ETV
attr source  Sentmessages
attr title  "Sentmessages, vector"
vector 351  Lora.endDevice[81]  LostmessagesStats:vector  ETV
attr source  Lostmessages
attr title  "Lostmessages, vector"
vector 352  Lora.endDevice[82]  CH1state:vector  ETV
attr enum  IDLE=0,BUSY=1,TRANSMITTING=2
attr source  state
attr title  "Channel_1 state, vector"
vector 353  Lora.endDevice[82]  usedCh:vector  ETV
attr source  usedChannel
attr title  "UsedChannel, vector"
vector 354  Lora.endDevice[82]  SentmessagesStats:vector  ETV
attr source  Sentmessages
attr title  "Sentmessages, vector"
vector 355  Lora.endDevice[82]  LostmessagesStats:vector  ETV
attr source  Lostmessages
attr title  "Lostmessages, vector"
vector 356  Lora.endDevice[83]  CH1state:vector  ETV
attr enum  IDLE=0,BUSY=1,TRANSMITTING=2
attr source  state
attr title  "Channel_1 state, vector"
vector 357  Lora.endDevice[83]  usedCh:vector  ETV
attr source  usedChannel
attr title  "UsedChannel, vector"
vector 358  Lora.endDevice[83]  SentmessagesStats:vector  ETV
attr source  Sentmessages
attr title  "Sentmessages, vector"
vector 359  Lora.endDevice[83]  LostmessagesStats:vector  ETV
attr source  Lostmessages
attr title  "Lostmessages, vector"
vector 360  Lora.endDevice[84]  CH1state:vector  ETV
attr enum  IDLE=0,BUSY=1,TRANSMITTING=2
attr source  state
attr title  "Channel_1 state, vector"
vector 361  Lora.endDevice[84]  usedCh:vector  ETV
attr source  usedChannel
attr title  "UsedChannel, vector"
vector 362  Lora.endDevice[84]  SentmessagesStats:vector  ETV
attr source  Sentmessages
attr title  "Sentmessages, vector"
vector 363  Lora.endDevice[84]  LostmessagesStats:vector  ETV
attr source  Lostmessages
attr title  "Lostmessages, vector"
vector 364  Lora.endDevice[85]  CH1state:vector  ETV
attr enum  IDLE=0,BUSY=1,TRANSMITTING=2
attr source  state
attr title  "Channel_1 state, vector"
vector 365  Lora.endDevice[85]  usedCh:vector  ETV
attr source  usedChannel
attr title  "UsedChannel, vector"
vector 366  Lora.endDevice[85]  SentmessagesStats:vector  ETV
attr source  Sentmessages
attr title  "Sentmessages, vector"
vector 367  Lora.endDevice[85]  LostmessagesStats:vector  ETV
attr source  Lostmessages
attr title  "Lostmessages, vector"
vector 368  Lora.endDevice[86]  CH1state:vector  ETV
attr enum  IDLE=0,BUSY=1,TRANSMITTING=2
attr source  state
attr title  "Channel_1 state, vector"
vector 369  Lora.endDevice[86]  usedCh:vector  ETV
attr source  usedChannel
attr title  "UsedChannel, vector"
vector 370  Lora.endDevice[86]  SentmessagesStats:vector  ETV
attr source  Sentmessages
attr title  "Sentmessages, vector"
vector 371  Lora.endDevice[86]  LostmessagesStats:vector  ETV
attr source  Lostmessages
attr title  "Lostmessages, vector"
vector 372  Lora.endDevice[87]  CH1state:vector  ETV
attr enum  IDLE=0,BUSY=1,TRANSMITTING=2
attr source  state
attr title  "Channel_1 state, vector"
vector 373  Lora.endDevice[87]  usedCh:vector  ETV
attr source  usedChannel
attr title  "UsedChannel, vector"
vector 374  Lora.endDevice[87]  SentmessagesStats:vector  ETV
attr source  Sentmessages
attr title  "Sentmessages, vector"
vector 375  Lora.endDevice[87]  LostmessagesStats:vector  ETV
attr source  Lostmessages
attr title  "Lostmessages, vector"
vector 376  Lora.endDevice[88]  CH1state:vector  ETV
attr enum  IDLE=0,BUSY=1,TRANSMITTING=2
attr source  state
attr title  "Channel_1 state, vector"
vector 377  Lora.endDevice[88]  usedCh:vector  ETV
attr source  usedChannel
attr title  "UsedChannel, vector"
vector 378  Lora.endDevice[88]  SentmessagesStats:vector  ETV
attr source  Sentmessages
attr title  "Sentmessages, vector"
vector 379  Lora.endDevice[88]  LostmessagesStats:vector  ETV
attr source  Lostmessages
attr title  "Lostmessages, vector"
vector 380  Lora.endDevice[89]  CH1state:vector  ETV
attr enum  IDLE=0,BUSY=1,TRANSMITTING=2
attr source  state
attr title  "Channel_1 state, vector"
vector 381  Lora.endDevice[89]  usedCh:vector  ETV
attr source  usedChannel
attr title  "UsedChannel, vector"
vector 382  Lora.endDevice[89]  SentmessagesStats:vector  ETV
attr source  Sentmessages
attr title  "Sentmessages, vector"
vector 383  Lora.endDevice[89]  LostmessagesStats:vector  ETV
attr source  Lostmessages
attr title  "Lostmessages, vector"
vector 384  Lora.endDevice[90]  CH1state:vector  ETV
attr enum  IDLE=0,BUSY=1,TRANSMITTING=2
attr source  state
attr title  "Channel_1 state, vector"
vector 385  Lora.endDevice[90]  usedCh:vector  ETV
attr source  usedChannel
attr title  "UsedChannel, vector"
vector 386  Lora.endDevice[90]  SentmessagesStats:vector  ETV
attr source  Sentmessages
attr title  "Sentmessages, vector"
vector 387  Lora.endDevice[90]  LostmessagesStats:vector  ETV
attr source  Lostmessages
attr title  "Lostmessages, vector"
vector 388  Lora.endDevice[91]  CH1state:vector  ETV
attr enum  IDLE=0,BUSY=1,TRANSMITTING=2
attr source  state
attr title  "Channel_1 state, vector"
vector 389  Lora.endDevice[91]  usedCh:vector  ETV
attr source  usedChannel
attr title  "UsedChannel, vector"
vector 390  Lora.endDevice[91]  SentmessagesStats:vector  ETV
attr source  Sentmessages
attr title  "Sentmessages, vector"
vector 391  Lora.endDevice[91]  LostmessagesStats:vector  ETV
attr source  Lostmessages
attr title  "Lostmessages, vector"
vector 392  Lora.endDevice[92]  CH1state:vector  ETV
attr enum  IDLE=0,BUSY=1,TRANSMITTING=2
attr source  state
attr title  "Channel_1 state, vector"
vector 393  Lora.endDevice[92]  usedCh:vector  ETV
attr source  usedChannel
attr title  "UsedChannel, vector"
vector 394  Lora.endDevice[92]  SentmessagesStats:vector  ETV
attr source  Sentmessages
attr title  "Sentmessages, vector"
vector 395  Lora.endDevice[92]  LostmessagesStats:vector  ETV
attr source  Lostmessages
attr title  "Lostmessages, vector"
vector 396  Lora.endDevice[93]  CH1state:vector  ETV
attr enum  IDLE=0,BUSY=1,TRANSMITTING=2
attr source  state
attr title  "Channel_1 state, vector"
vector 397  Lora.endDevice[93]  usedCh:vector  ETV
attr source  usedChannel
attr title  "UsedChannel, vector"
vector 398  Lora.endDevice[93]  SentmessagesStats:vector  ETV
attr source  Sentmessages
attr title  "Sentmessages, vector"
vector 399  Lora.endDevice[93]  LostmessagesStats:vector  ETV
attr source  Lostmessages
attr title  "Lostmessages, vector"
vector 400  Lora.endDevice[94]  CH1state:vector  ETV
attr enum  IDLE=0,BUSY=1,TRANSMITTING=2
attr source  state
attr title  "Channel_1 state, vector"
vector 401  Lora.endDevice[94]  usedCh:vector  ETV
attr source  usedChannel
attr title  "UsedChannel, vector"
vector 402  Lora.endDevice[94]  SentmessagesStats:vector  ETV
attr source  Sentmessages
attr title  "Sentmessages, vector"
vector 403  Lora.endDevice[94]  LostmessagesStats:vector  ETV
attr source  Lostmessages
attr title  "Lostmessages, vector"
vector 404  Lora.endDevice[95]  CH1state:vector  ETV
attr enum  IDLE=0,BUSY=1,TRANSMITTING=2
attr source  state
attr title  "Channel_1 state, vector"
vector 405  Lora.endDevice[95]  usedCh:vector  ETV
attr source  usedChannel
attr title  "UsedChannel, vector"
vector 406  Lora.endDevice[95]  SentmessagesStats:vector  ETV
attr source  Sentmessages
attr title  "Sentmessages, vector"
vector 407  Lora.endDevice[95]  LostmessagesStats:vector  ETV
attr source  Lostmessages
attr title  "Lostmessages, vector"
vector 408  Lora.endDevice[96]  CH1state:vector  ETV
attr enum  IDLE=0,BUSY=1,TRANSMITTING=2
attr source  state
attr title  "Channel_1 state, vector"
vector 409  Lora.endDevice[96]  usedCh:vector  ETV
attr source  usedChannel
attr title  "UsedChannel, vector"
vector 410  Lora.endDevice[96]  SentmessagesStats:vector  ETV
attr source  Sentmessages
attr title  "Sentmessages, vector"
vector 411  Lora.endDevice[96]  LostmessagesStats:vector  ETV
attr source  Lostmessages
attr title  "Lostmessages, vector"
vector 412  Lora.endDevice[97]  CH1state:vector  ETV
attr enum  IDLE=0,BUSY=1,TRANSMITTING=2
attr source  state
attr title  "Channel_1 state, vector"
vector 413  Lora.endDevice[97]  usedCh:vector  ETV
attr source  usedChannel
attr title  "UsedChannel, vector"
vector 414  Lora.endDevice[97]  SentmessagesStats:vector  ETV
attr source  Sentmessages
attr title  "Sentmessages, vector"
vector 415  Lora.endDevice[97]  LostmessagesStats:vector  ETV
attr source  Lostmessages
attr title  "Lostmessages, vector"
vector 416  Lora.endDevice[98]  CH1state:vector  ETV
attr enum  IDLE=0,BUSY=1,TRANSMITTING=2
attr source  state
attr title  "Channel_1 state, vector"
vector 417  Lora.endDevice[98]  usedCh:vector  ETV
attr source  usedChannel
attr title  "UsedChannel, vector"
vector 418  Lora.endDevice[98]  SentmessagesStats:vector  ETV
attr source  Sentmessages
attr title  "Sentmessages, vector"
vector 419  Lora.endDevice[98]  LostmessagesStats:vector  ETV
attr source  Lostmessages
attr title  "Lostmessages, vector"
vector 420  Lora.endDevice[99]  CH1state:vector  ETV
attr enum  IDLE=0,BUSY=1,TRANSMITTING=2
attr source  state
attr title  "Channel_1 state, vector"
vector 421  Lora.endDevice[99]  usedCh:vector  ETV
attr source  usedChannel
attr title  "UsedChannel, vector"
vector 422  Lora.endDevice[99]  SentmessagesStats:vector  ETV
attr source  Sentmessages
attr title  "Sentmessages, vector"
vector 423  Lora.endDevice[99]  LostmessagesStats:vector  ETV
attr source  Lostmessages
attr title  "Lostmessages, vector"
vector 424  Lora.endDevice[100]  CH1state:vector  ETV
attr enum  IDLE=0,BUSY=1,TRANSMITTING=2
attr source  state
attr title  "Channel_1 state, vector"
vector 425  Lora.endDevice[100]  usedCh:vector  ETV
attr source  usedChannel
attr title  "UsedChannel, vector"
vector 426  Lora.endDevice[100]  SentmessagesStats:vector  ETV
attr source  Sentmessages
attr title  "Sentmessages, vector"
vector 427  Lora.endDevice[100]  LostmessagesStats:vector  ETV
attr source  Lostmessages
attr title  "Lostmessages, vector"
vector 428  Lora.endDevice[101]  CH1state:vector  ETV
attr enum  IDLE=0,BUSY=1,TRANSMITTING=2
attr source  state
attr title  "Channel_1 state, vector"
vector 429  Lora.endDevice[101]  usedCh:vector  ETV
attr source  usedChannel
attr title  "UsedChannel, vector"
vector 430  Lora.endDevice[101]  SentmessagesStats:vector  ETV
attr source  Sentmessages
attr title  "Sentmessages, vector"
vector 431  Lora.endDevice[101]  LostmessagesStats:vector  ETV
attr source  Lostmessages
attr title  "Lostmessages, vector"
vector 432  Lora.endDevice[102]  CH1state:vector  ETV
attr enum  IDLE=0,BUSY=1,TRANSMITTING=2
attr source  state
attr title  "Channel_1 state, vector"
vector 433  Lora.endDevice[102]  usedCh:vector  ETV
attr source  usedChannel
attr title  "UsedChannel, vector"
vector 434  Lora.endDevice[102]  SentmessagesStats:vector  ETV
attr source  Sentmessages
attr title  "Sentmessages, vector"
vector 435  Lora.endDevice[102]  LostmessagesStats:vector  ETV
attr source  Lostmessages
attr title  "Lostmessages, vector"
vector 436  Lora.endDevice[103]  CH1state:vector  ETV
attr enum  IDLE=0,BUSY=1,TRANSMITTING=2
attr source  state
attr title  "Channel_1 state, vector"
vector 437  Lora.endDevice[103]  usedCh:vector  ETV
attr source  usedChannel
attr title  "UsedChannel, vector"
vector 438  Lora.endDevice[103]  SentmessagesStats:vector  ETV
attr source  Sentmessages
attr title  "Sentmessages, vector"
vector 439  Lora.endDevice[103]  LostmessagesStats:vector  ETV
attr source  Lostmessages
attr title  "Lostmessages, vector"
vector 440  Lora.endDevice[104]  CH1state:vector  ETV
attr enum  IDLE=0,BUSY=1,TRANSMITTING=2
attr source  state
attr title  "Channel_1 state, vector"
vector 441  Lora.endDevice[104]  usedCh:vector  ETV
attr source  usedChannel
attr title  "UsedChannel, vector"
vector 442  Lora.endDevice[104]  SentmessagesStats:vector  ETV
attr source  Sentmessages
attr title  "Sentmessages, vector"
vector 443  Lora.endDevice[104]  LostmessagesStats:vector  ETV
attr source  Lostmessages
attr title  "Lostmessages, vector"
vector 444  Lora.endDevice[105]  CH1state:vector  ETV
attr enum  IDLE=0,BUSY=1,TRANSMITTING=2
attr source  state
attr title  "Channel_1 state, vector"
vector 445  Lora.endDevice[105]  usedCh:vector  ETV
attr source  usedChannel
attr title  "UsedChannel, vector"
vector 446  Lora.endDevice[105]  SentmessagesStats:vector  ETV
attr source  Sentmessages
attr title  "Sentmessages, vector"
vector 447  Lora.endDevice[105]  LostmessagesStats:vector  ETV
attr source  Lostmessages
attr title  "Lostmessages, vector"
vector 448  Lora.endDevice[106]  CH1state:vector  ETV
attr enum  IDLE=0,BUSY=1,TRANSMITTING=2
attr source  state
attr title  "Channel_1 state, vector"
vector 449  Lora.endDevice[106]  usedCh:vector  ETV
attr source  usedChannel
attr title  "UsedChannel, vector"
vector 450  Lora.endDevice[106]  SentmessagesStats:vector  ETV
attr source  Sentmessages
attr title  "Sentmessages, vector"
vector 451  Lora.endDevice[106]  LostmessagesStats:vector  ETV
attr source  Lostmessages
attr title  "Lostmessages, vector"
vector 452  Lora.endDevice[107]  CH1state:vector  ETV
attr enum  IDLE=0,BUSY=1,TRANSMITTING=2
attr source  state
attr title  "Channel_1 state, vector"
vector 453  Lora.endDevice[107]  usedCh:vector  ETV
attr source  usedChannel
attr title  "UsedChannel, vector"
vector 454  Lora.endDevice[107]  SentmessagesStats:vector  ETV
attr source  Sentmessages
attr title  "Sentmessages, vector"
vector 455  Lora.endDevice[107]  LostmessagesStats:vector  ETV
attr source  Lostmessages
attr title  "Lostmessages, vector"
vector 456  Lora.endDevice[108]  CH1state:vector  ETV
attr enum  IDLE=0,BUSY=1,TRANSMITTING=2
attr source  state
attr title  "Channel_1 state, vector"
vector 457  Lora.endDevice[108]  usedCh:vector  ETV
attr source  usedChannel
attr title  "UsedChannel, vector"
vector 458  Lora.endDevice[108]  SentmessagesStats:vector  ETV
attr source  Sentmessages
attr title  "Sentmessages, vector"
vector 459  Lora.endDevice[108]  LostmessagesStats:vector  ETV
attr source  Lostmessages
attr title  "Lostmessages, vector"
vector 460  Lora.endDevice[109]  CH1state:vector  ETV
attr enum  IDLE=0,BUSY=1,TRANSMITTING=2
attr source  state
attr title  "Channel_1 state, vector"
vector 461  Lora.endDevice[109]  usedCh:vector  ETV
attr source  usedChannel
attr title  "UsedChannel, vector"
vector 462  Lora.endDevice[109]  SentmessagesStats:vector  ETV
attr source  Sentmessages
attr title  "Sentmessages, vector"
vector 463  Lora.endDevice[109]  LostmessagesStats:vector  ETV
attr source  Lostmessages
attr title  "Lostmessages, vector"
vector 464  Lora.endDevice[110]  CH1state:vector  ETV
attr enum  IDLE=0,BUSY=1,TRANSMITTING=2
attr source  state
attr title  "Channel_1 state, vector"
vector 465  Lora.endDevice[110]  usedCh:vector  ETV
attr source  usedChannel
attr title  "UsedChannel, vector"
vector 466  Lora.endDevice[110]  SentmessagesStats:vector  ETV
attr source  Sentmessages
attr title  "Sentmessages, vector"
vector 467  Lora.endDevice[110]  LostmessagesStats:vector  ETV
attr source  Lostmessages
attr title  "Lostmessages, vector"
vector 468  Lora.endDevice[111]  CH1state:vector  ETV
attr enum  IDLE=0,BUSY=1,TRANSMITTING=2
attr source  state
attr title  "Channel_1 state, vector"
vector 469  Lora.endDevice[111]  usedCh:vector  ETV
attr source  usedChannel
attr title  "UsedChannel, vector"
vector 470  Lora.endDevice[111]  SentmessagesStats:vector  ETV
attr source  Sentmessages
attr title  "Sentmessages, vector"
vector 471  Lora.endDevice[111]  LostmessagesStats:vector  ETV
attr source  Lostmessages
attr title  "Lostmessages, vector"
vector 472  Lora.endDevice[112]  CH1state:vector  ETV
attr enum  IDLE=0,BUSY=1,TRANSMITTING=2
attr source  state
attr title  "Channel_1 state, vector"
vector 473  Lora.endDevice[112]  usedCh:vector  ETV
attr source  usedChannel
attr title  "UsedChannel, vector"
vector 474  Lora.endDevice[112]  SentmessagesStats:vector  ETV
attr source  Sentmessages
attr title  "Sentmessages, vector"
vector 475  Lora.endDevice[112]  LostmessagesStats:vector  ETV
attr source  Lostmessages
attr title  "Lostmessages, vector"
vector 476  Lora.endDevice[113]  CH1state:vector  ETV
attr enum  IDLE=0,BUSY=1,TRANSMITTING=2
attr source  state
attr title  "Channel_1 state, vector"
vector 477  Lora.endDevice[113]  usedCh:vector  ETV
attr source  usedChannel
attr title  "UsedChannel, vector"
vector 478  Lora.endDevice[113]  SentmessagesStats:vector  ETV
attr source  Sentmessages
attr title  "Sentmessages, vector"
vector 479  Lora.endDevice[113]  LostmessagesStats:vector  ETV
attr source  Lostmessages
attr title  "Lostmessages, vector"
vector 480  Lora.endDevice[114]  CH1state:vector  ETV
attr enum  IDLE=0,BUSY=1,TRANSMITTING=2
attr source  state
attr title  "Channel_1 state, vector"
vector 481  Lora.endDevice[114]  usedCh:vector  ETV
attr source  usedChannel
attr title  "UsedChannel, vector"
vector 482  Lora.endDevice[114]  SentmessagesStats:vector  ETV
attr source  Sentmessages
attr title  "Sentmessages, vector"
vector 483  Lora.endDevice[114]  LostmessagesStats:vector  ETV
attr source  Lostmessages
attr title  "Lostmessages, vector"
vector 484  Lora.endDevice[115]  CH1state:vector  ETV
attr enum  IDLE=0,BUSY=1,TRANSMITTING=2
attr source  state
attr title  "Channel_1 state, vector"
vector 485  Lora.endDevice[115]  usedCh:vector  ETV
attr source  usedChannel
attr title  "UsedChannel, vector"
vector 486  Lora.endDevice[115]  SentmessagesStats:vector  ETV
attr source  Sentmessages
attr title  "Sentmessages, vector"
vector 487  Lora.endDevice[115]  LostmessagesStats:vector  ETV
attr source  Lostmessages
attr title  "Lostmessages, vector"
vector 488  Lora.endDevice[116]  CH1state:vector  ETV
attr enum  IDLE=0,BUSY=1,TRANSMITTING=2
attr source  state
attr title  "Channel_1 state, vector"
vector 489  Lora.endDevice[116]  usedCh:vector  ETV
attr source  usedChannel
attr title  "UsedChannel, vector"
vector 490  Lora.endDevice[116]  SentmessagesStats:vector  ETV
attr source  Sentmessages
attr title  "Sentmessages, vector"
vector 491  Lora.endDevice[116]  LostmessagesStats:vector  ETV
attr source  Lostmessages
attr title  "Lostmessages, vector"
vector 492  Lora.endDevice[117]  CH1state:vector  ETV
attr enum  IDLE=0,BUSY=1,TRANSMITTING=2
attr source  state
attr title  "Channel_1 state, vector"
vector 493  Lora.endDevice[117]  usedCh:vector  ETV
attr source  usedChannel
attr title  "UsedChannel, vector"
vector 494  Lora.endDevice[117]  SentmessagesStats:vector  ETV
attr source  Sentmessages
attr title  "Sentmessages, vector"
vector 495  Lora.endDevice[117]  LostmessagesStats:vector  ETV
attr source  Lostmessages
attr title  "Lostmessages, vector"
vector 496  Lora.endDevice[118]  CH1state:vector  ETV
attr enum  IDLE=0,BUSY=1,TRANSMITTING=2
attr source  state
attr title  "Channel_1 state, vector"
vector 497  Lora.endDevice[118]  usedCh:vector  ETV
attr source  usedChannel
attr title  "UsedChannel, vector"
vector 498  Lora.endDevice[118]  SentmessagesStats:vector  ETV
attr source  Sentmessages
attr title  "Sentmessages, vector"
vector 499  Lora.endDevice[118]  LostmessagesStats:vector  ETV
attr source  Lostmessages
attr title  "Lostmessages, vector"
vector 500  Lora.endDevice[119]  CH1state:vector  ETV
attr enum  IDLE=0,BUSY=1,TRANSMITTING=2
attr source  state
attr title  "Channel_1 state, vector"
vector 501  Lora.endDevice[119]  usedCh:vector  ETV
attr source  usedChannel
attr title  "UsedChannel, vector"
vector 502  Lora.endDevice[119]  SentmessagesStats:vector  ETV
attr source  Sentmessages
attr title  "Sentmessages, vector"
vector 503  Lora.endDevice[119]  LostmessagesStats:vector  ETV
attr source  Lostmessages
attr title  "Lostmessages, vector"
vector 504  Lora.endDevice[120]  CH1state:vector  ETV
attr enum  IDLE=0,BUSY=1,TRANSMITTING=2
attr source  state
attr title  "Channel_1 state, vector"
vector 505  Lora.endDevice[120]  usedCh:vector  ETV
attr source  usedChannel
attr title  "UsedChannel, vector"
vector 506  Lora.endDevice[120]  SentmessagesStats:vector  ETV
attr source  Sentmessages
attr title  "Sentmessages, vector"
vector 507  Lora.endDevice[120]  LostmessagesStats:vector  ETV
attr source  Lostmessages
attr title  "Lostmessages, vector"
vector 508  Lora.endDevice[121]  CH1state:vector  ETV
attr enum  IDLE=0,BUSY=1,TRANSMITTING=2
attr source  state
attr title  "Channel_1 state, vector"
vector 509  Lora.endDevice[121]  usedCh:vector  ETV
attr source  usedChannel
attr title  "UsedChannel, vector"
vector 510  Lora.endDevice[121]  SentmessagesStats:vector  ETV
attr source  Sentmessages
attr title  "Sentmessages, vector"
vector 511  Lora.endDevice[121]  LostmessagesStats:vector  ETV
attr source  Lostmessages
attr title  "Lostmessages, vector"
vector 512  Lora.endDevice[122]  CH1state:vector  ETV
attr enum  IDLE=0,BUSY=1,TRANSMITTING=2
attr source  state
attr title  "Channel_1 state, vector"
vector 513  Lora.endDevice[122]  usedCh:vector  ETV
attr source  usedChannel
attr title  "UsedChannel, vector"
vector 514  Lora.endDevice[122]  SentmessagesStats:vector  ETV
attr source  Sentmessages
attr title  "Sentmessages, vector"
vector 515  Lora.endDevice[122]  LostmessagesStats:vector  ETV
attr source  Lostmessages
attr title  "Lostmessages, vector"
vector 516  Lora.endDevice[123]  CH1state:vector  ETV
attr enum  IDLE=0,BUSY=1,TRANSMITTING=2
attr source  state
attr title  "Channel_1 state, vector"
vector 517  Lora.endDevice[123]  usedCh:vector  ETV
attr source  usedChannel
attr title  "UsedChannel, vector"
vector 518  Lora.endDevice[123]  SentmessagesStats:vector  ETV
attr source  Sentmessages
attr title  "Sentmessages, vector"
vector 519  Lora.endDevice[123]  LostmessagesStats:vector  ETV
attr source  Lostmessages
attr title  "Lostmessages, vector"
vector 520  Lora.endDevice[124]  CH1state:vector  ETV
attr enum  IDLE=0,BUSY=1,TRANSMITTING=2
attr source  state
attr title  "Channel_1 state, vector"
vector 521  Lora.endDevice[124]  usedCh:vector  ETV
attr source  usedChannel
attr title  "UsedChannel, vector"
vector 522  Lora.endDevice[124]  SentmessagesStats:vector  ETV
attr source  Sentmessages
attr title  "Sentmessages, vector"
vector 523  Lora.endDevice[124]  LostmessagesStats:vector  ETV
attr source  Lostmessages
attr title  "Lostmessages, vector"
vector 524  Lora.endDevice[125]  CH1state:vector  ETV
attr enum  IDLE=0,BUSY=1,TRANSMITTING=2
attr source  state
attr title  "Channel_1 state, vector"
vector 525  Lora.endDevice[125]  usedCh:vector  ETV
attr source  usedChannel
attr title  "UsedChannel, vector"
vector 526  Lora.endDevice[125]  SentmessagesStats:vector  ETV
attr source  Sentmessages
attr title  "Sentmessages, vector"
vector 527  Lora.endDevice[125]  LostmessagesStats:vector  ETV
attr source  Lostmessages
attr title  "Lostmessages, vector"
vector 528  Lora.endDevice[126]  CH1state:vector  ETV
attr enum  IDLE=0,BUSY=1,TRANSMITTING=2
attr source  state
attr title  "Channel_1 state, vector"
vector 529  Lora.endDevice[126]  usedCh:vector  ETV
attr source  usedChannel
attr title  "UsedChannel, vector"
vector 530  Lora.endDevice[126]  SentmessagesStats:vector  ETV
attr source  Sentmessages
attr title  "Sentmessages, vector"
vector 531  Lora.endDevice[126]  LostmessagesStats:vector  ETV
attr source  Lostmessages
attr title  "Lostmessages, vector"
vector 532  Lora.endDevice[127]  CH1state:vector  ETV
attr enum  IDLE=0,BUSY=1,TRANSMITTING=2
attr source  state
attr title  "Channel_1 state, vector"
vector 533  Lora.endDevice[127]  usedCh:vector  ETV
attr source  usedChannel
attr title  "UsedChannel, vector"
vector 534  Lora.endDevice[127]  SentmessagesStats:vector  ETV
attr source  Sentmessages
attr title  "Sentmessages, vector"
vector 535  Lora.endDevice[127]  LostmessagesStats:vector  ETV
attr source  Lostmessages
attr title  "Lostmessages, vector"
vector 536  Lora.endDevice[128]  CH1state:vector  ETV
attr enum  IDLE=0,BUSY=1,TRANSMITTING=2
attr source  state
attr title  "Channel_1 state, vector"
vector 537  Lora.endDevice[128]  usedCh:vector  ETV
attr source  usedChannel
attr title  "UsedChannel, vector"
vector 538  Lora.endDevice[128]  SentmessagesStats:vector  ETV
attr source  Sentmessages
attr title  "Sentmessages, vector"
vector 539  Lora.endDevice[128]  LostmessagesStats:vector  ETV
attr source  Lostmessages
attr title  "Lostmessages, vector"
vector 540  Lora.endDevice[129]  CH1state:vector  ETV
attr enum  IDLE=0,BUSY=1,TRANSMITTING=2
attr source  state
attr title  "Channel_1 state, vector"
vector 541  Lora.endDevice[129]  usedCh:vector  ETV
attr source  usedChannel
attr title  "UsedChannel, vector"
vector 542  Lora.endDevice[129]  SentmessagesStats:vector  ETV
attr source  Sentmessages
attr title  "Sentmessages, vector"
vector 543  Lora.endDevice[129]  LostmessagesStats:vector  ETV
attr source  Lostmessages
attr title  "Lostmessages, vector"
vector 544  Lora.endDevice[130]  CH1state:vector  ETV
attr enum  IDLE=0,BUSY=1,TRANSMITTING=2
attr source  state
attr title  "Channel_1 state, vector"
vector 545  Lora.endDevice[130]  usedCh:vector  ETV
attr source  usedChannel
attr title  "UsedChannel, vector"
vector 546  Lora.endDevice[130]  SentmessagesStats:vector  ETV
attr source  Sentmessages
attr title  "Sentmessages, vector"
vector 547  Lora.endDevice[130]  LostmessagesStats:vector  ETV
attr source  Lostmessages
attr title  "Lostmessages, vector"
vector 548  Lora.endDevice[131]  CH1state:vector  ETV
attr enum  IDLE=0,BUSY=1,TRANSMITTING=2
attr source  state
attr title  "Channel_1 state, vector"
vector 549  Lora.endDevice[131]  usedCh:vector  ETV
attr source  usedChannel
attr title  "UsedChannel, vector"
vector 550  Lora.endDevice[131]  SentmessagesStats:vector  ETV
attr source  Sentmessages
attr title  "Sentmessages, vector"
vector 551  Lora.endDevice[131]  LostmessagesStats:vector  ETV
attr source  Lostmessages
attr title  "Lostmessages, vector"
vector 552  Lora.endDevice[132]  CH1state:vector  ETV
attr enum  IDLE=0,BUSY=1,TRANSMITTING=2
attr source  state
attr title  "Channel_1 state, vector"
vector 553  Lora.endDevice[132]  usedCh:vector  ETV
attr source  usedChannel
attr title  "UsedChannel, vector"
vector 554  Lora.endDevice[132]  SentmessagesStats:vector  ETV
attr source  Sentmessages
attr title  "Sentmessages, vector"
vector 555  Lora.endDevice[132]  LostmessagesStats:vector  ETV
attr source  Lostmessages
attr title  "Lostmessages, vector"
vector 556  Lora.endDevice[133]  CH1state:vector  ETV
attr enum  IDLE=0,BUSY=1,TRANSMITTING=2
attr source  state
attr title  "Channel_1 state, vector"
vector 557  Lora.endDevice[133]  usedCh:vector  ETV
attr source  usedChannel
attr title  "UsedChannel, vector"
vector 558  Lora.endDevice[133]  SentmessagesStats:vector  ETV
attr source  Sentmessages
attr title  "Sentmessages, vector"
vector 559  Lora.endDevice[133]  LostmessagesStats:vector  ETV
attr source  Lostmessages
attr title  "Lostmessages, vector"
vector 560  Lora.endDevice[134]  CH1state:vector  ETV
attr enum  IDLE=0,BUSY=1,TRANSMITTING=2
attr source  state
attr title  "Channel_1 state, vector"
vector 561  Lora.endDevice[134]  usedCh:vector  ETV
attr source  usedChannel
attr title  "UsedChannel, vector"
vector 562  Lora.endDevice[134]  SentmessagesStats:vector  ETV
attr source  Sentmessages
attr title  "Sentmessages, vector"
vector 563  Lora.endDevice[134]  LostmessagesStats:vector  ETV
attr source  Lostmessages
attr title  "Lostmessages, vector"
vector 564  Lora.endDevice[135]  CH1state:vector  ETV
attr enum  IDLE=0,BUSY=1,TRANSMITTING=2
attr source  state
attr title  "Channel_1 state, vector"
vector 565  Lora.endDevice[135]  usedCh:vector  ETV
attr source  usedChannel
attr title  "UsedChannel, vector"
vector 566  Lora.endDevice[135]  SentmessagesStats:vector  ETV
attr source  Sentmessages
attr title  "Sentmessages, vector"
vector 567  Lora.endDevice[135]  LostmessagesStats:vector  ETV
attr source  Lostmessages
attr title  "Lostmessages, vector"
vector 568  Lora.endDevice[136]  CH1state:vector  ETV
attr enum  IDLE=0,BUSY=1,TRANSMITTING=2
attr source  state
attr title  "Channel_1 state, vector"
vector 569  Lora.endDevice[136]  usedCh:vector  ETV
attr source  usedChannel
attr title  "UsedChannel, vector"
vector 570  Lora.endDevice[136]  SentmessagesStats:vector  ETV
attr source  Sentmessages
attr title  "Sentmessages, vector"
vector 571  Lora.endDevice[136]  LostmessagesStats:vector  ETV
attr source  Lostmessages
attr title  "Lostmessages, vector"
vector 572  Lora.endDevice[137]  CH1state:vector  ETV
attr enum  IDLE=0,BUSY=1,TRANSMITTING=2
attr source  state
attr title  "Channel_1 state, vector"
vector 573  Lora.endDevice[137]  usedCh:vector  ETV
attr source  usedChannel
attr title  "UsedChannel, vector"
vector 574  Lora.endDevice[137]  SentmessagesStats:vector  ETV
attr source  Sentmessages
attr title  "Sentmessages, vector"
vector 575  Lora.endDevice[137]  LostmessagesStats:vector  ETV
attr source  Lostmessages
attr title  "Lostmessages, vector"
vector 576  Lora.endDevice[138]  CH1state:vector  ETV
attr enum  IDLE=0,BUSY=1,TRANSMITTING=2
attr source  state
attr title  "Channel_1 state, vector"
vector 577  Lora.endDevice[138]  usedCh:vector  ETV
attr source  usedChannel
attr title  "UsedChannel, vector"
vector 578  Lora.endDevice[138]  SentmessagesStats:vector  ETV
attr source  Sentmessages
attr title  "Sentmessages, vector"
vector 579  Lora.endDevice[138]  LostmessagesStats:vector  ETV
attr source  Lostmessages
attr title  "Lostmessages, vector"
vector 580  Lora.endDevice[139]  CH1state:vector  ETV
attr enum  IDLE=0,BUSY=1,TRANSMITTING=2
attr source  state
attr title  "Channel_1 state, vector"
vector 581  Lora.endDevice[139]  usedCh:vector  ETV
attr source  usedChannel
attr title  "UsedChannel, vector"
vector 582  Lora.endDevice[139]  SentmessagesStats:vector  ETV
attr source  Sentmessages
attr title  "Sentmessages, vector"
vector 583  Lora.endDevice[139]  LostmessagesStats:vector  ETV
attr source  Lostmessages
attr title  "Lostmessages, vector"
vector 584  Lora.endDevice[140]  CH1state:vector  ETV
attr enum  IDLE=0,BUSY=1,TRANSMITTING=2
attr source  state
attr title  "Channel_1 state, vector"
vector 585  Lora.endDevice[140]  usedCh:vector  ETV
attr source  usedChannel
attr title  "UsedChannel, vector"
vector 586  Lora.endDevice[140]  SentmessagesStats:vector  ETV
attr source  Sentmessages
attr title  "Sentmessages, vector"
vector 587  Lora.endDevice[140]  LostmessagesStats:vector  ETV
attr source  Lostmessages
attr title  "Lostmessages, vector"
vector 588  Lora.endDevice[141]  CH1state:vector  ETV
attr enum  IDLE=0,BUSY=1,TRANSMITTING=2
attr source  state
attr title  "Channel_1 state, vector"
vector 589  Lora.endDevice[141]  usedCh:vector  ETV
attr source  usedChannel
attr title  "UsedChannel, vector"
vector 590  Lora.endDevice[141]  SentmessagesStats:vector  ETV
attr source  Sentmessages
attr title  "Sentmessages, vector"
vector 591  Lora.endDevice[141]  LostmessagesStats:vector  ETV
attr source  Lostmessages
attr title  "Lostmessages, vector"
vector 592  Lora.endDevice[142]  CH1state:vector  ETV
attr enum  IDLE=0,BUSY=1,TRANSMITTING=2
attr source  state
attr title  "Channel_1 state, vector"
vector 593  Lora.endDevice[142]  usedCh:vector  ETV
attr source  usedChannel
attr title  "UsedChannel, vector"
vector 594  Lora.endDevice[142]  SentmessagesStats:vector  ETV
attr source  Sentmessages
attr title  "Sentmessages, vector"
vector 595  Lora.endDevice[142]  LostmessagesStats:vector  ETV
attr source  Lostmessages
attr title  "Lostmessages, vector"
vector 596  Lora.endDevice[143]  CH1state:vector  ETV
attr enum  IDLE=0,BUSY=1,TRANSMITTING=2
attr source  state
attr title  "Channel_1 state, vector"
vector 597  Lora.endDevice[143]  usedCh:vector  ETV
attr source  usedChannel
attr title  "UsedChannel, vector"
vector 598  Lora.endDevice[143]  SentmessagesStats:vector  ETV
attr source  Sentmessages
attr title  "Sentmessages, vector"
vector 599  Lora.endDevice[143]  LostmessagesStats:vector  ETV
attr source  Lostmessages
attr title  "Lostmessages, vector"
vector 600  Lora.endDevice[144]  CH1state:vector  ETV
attr enum  IDLE=0,BUSY=1,TRANSMITTING=2
attr source  state
attr title  "Channel_1 state, vector"
vector 601  Lora.endDevice[144]  usedCh:vector  ETV
attr source  usedChannel
attr title  "UsedChannel, vector"
vector 602  Lora.endDevice[144]  SentmessagesStats:vector  ETV
attr source  Sentmessages
attr title  "Sentmessages, vector"
vector 603  Lora.endDevice[144]  LostmessagesStats:vector  ETV
attr source  Lostmessages
attr title  "Lostmessages, vector"
vector 604  Lora.endDevice[145]  CH1state:vector  ETV
attr enum  IDLE=0,BUSY=1,TRANSMITTING=2
attr source  state
attr title  "Channel_1 state, vector"
vector 605  Lora.endDevice[145]  usedCh:vector  ETV
attr source  usedChannel
attr title  "UsedChannel, vector"
vector 606  Lora.endDevice[145]  SentmessagesStats:vector  ETV
attr source  Sentmessages
attr title  "Sentmessages, vector"
vector 607  Lora.endDevice[145]  LostmessagesStats:vector  ETV
attr source  Lostmessages
attr title  "Lostmessages, vector"
vector 608  Lora.endDevice[146]  CH1state:vector  ETV
attr enum  IDLE=0,BUSY=1,TRANSMITTING=2
attr source  state
attr title  "Channel_1 state, vector"
vector 609  Lora.endDevice[146]  usedCh:vector  ETV
attr source  usedChannel
attr title  "UsedChannel, vector"
vector 610  Lora.endDevice[146]  SentmessagesStats:vector  ETV
attr source  Sentmessages
attr title  "Sentmessages, vector"
vector 611  Lora.endDevice[146]  LostmessagesStats:vector  ETV
attr source  Lostmessages
attr title  "Lostmessages, vector"
vector 612  Lora.endDevice[147]  CH1state:vector  ETV
attr enum  IDLE=0,BUSY=1,TRANSMITTING=2
[...]
361	2347418 5135 0 218214 0 92.072 254 0 3 505 1177
362	2352553 11 0 0 0 0 1 0 0 0 0
363	2352564 11 0 0 0 0 1 0 0 0 0
364	2352575 5322 0 219172 0 92.467 263 0 1 262 262
365	2357897 5322 0 219172 0 92.467 263 0 3 523 1219
366	2363219 11 0 0 0 0 1 0 0 0 0
367	2363230 11 0 0 0 0 1 0 0 0 0
368	2363241 4992 0 218391 0 92.137 247 0 1 246 246
369	2368233 4992 0 218391 0 92.137 247 0 3 492 1148
370	2373225 11 0 0 0 0 1 0 0 0 0
371	2373236 11 0 0 0 0 1 0 0 0 0
372	2373247 5180 0 218801 0 92.283 255 0 1 254 254
373	2378427 5180 0 218801 0 92.283 255 0 3 507 1181
374	2383607 11 0 0 0 0 1 0 0 0 0
375	2383618 11 0 0 0 0 1 0 0 0 0
376	2383629 5130 0 219235 0 92.491 253 0 1 252 252
377	2388759 5130 0 219235 0 92.491 253 0 3 504 1176
378	2393889 11 0 0 0 0 1 0 0 0 0
379	2393900 11 0 0 0 0 1 0 0 0 0
380	2393911 5140 0 218114 0 92.012 254 0 1 253 253
381	2399051 5140 0 218114 0 92.012 254 0 3 505 1177
382	2404191 11 0 0 0 0 1 0 0 0 0
383	2404202 11 0 0 0 0 1 0 0 0 0
384	2404213 5007 0 217998 0 91.957 248 0 1 247 247
385	2409220 5007 0 217998 0 91.957 248 0 3 493 1149
386	2414227 11 0 0 0 0 1 0 0 0 0
387	2414238 11 0 0 0 0 1 0 0 0 0
388	2414249 5306 0 219347 0 92.539 262 0 1 261 261
389	2419555 5306 0 219347 0 92.539 262 0 3 522 1218
390	2424861 11 0 0 0 0 1 0 0 0 0
391	2424872 11 0 0 0 0 1 0 0 0 0
392	2424883 4964 0 218755 0 92.27 245 0 1 244 244
393	2429847 4964 0 218755 0 92.27 245 0 3 487 1135
394	2434811 11 0 0 0 0 1 0 0 0 0
395	2434822 11 0 0 0 0 1 0 0 0 0
396	2434833 4878 0 219017 0 92.387 241 0 1 240 240
397	2439711 4878 0 219017 0 92.387 241 0 3 480 1120
398	2444589 11 0 0 0 0 1 0 0 0 0
399	2444600 11 0 0 0 0 1 0 0 0 0
400	2444611 4911 0 218793 0 92.281 242 0 1 241 241
401	2449522 4911 0 218793 0 92.281 242 0 3 481 1121
402	2454433 11 0 0 0 0 1 0 0 0 0
403	2454444 11 0 0 0 0 1 0 0 0 0
404	2454455 4935 0 219144 0 92.447 244 0 1 243 243
405	2459390 4935 0 219144 0 92.447 244 0 3 486 1134
406	2464325 11 0 0 0 0 1 0 0 0 0
407	2464336 11 0 0 0 0 1 0 0 0 0
408	2464347 5019 0 218780 0 92.278 248 0 1 247 247
409	2469366 5019 0 218780 0 92.278 248 0 3 493 1149
410	2474385 11 0 0 0 0 1 0 0 0 0
411	2474396 11 0 0 0 0 1 0 0 0 0
412	2474407 5155 0 218991 0 92.381 255 0 1 254 254
413	2479562 5155 0 218991 0 92.381 255 0 3 507 1181
414	2484717 11 0 0 0 0 1 0 0 0 0
415	2484728 11 0 0 0 0 1 0 0 0 0
416	2484739 4829 0 218949 0 92.364 239 0 1 238 238
417	2489568 4829 0 218949 0 92.364 239 0 3 475 1107
418	2494397 11 0 0 0 0 1 0 0 0 0
419	2494408 11 0 0 0 0 1 0 0 0 0
420	2494419 5038 0 219120 0 92.437 249 0 1 248 248
421	2499457 5038 0 219120 0 92.437 249 0 3 495 1153
422	2504495 11 0 0 0 0 1 0 0 0 0
423	2504506 11 0 0 0 0 1 0 0 0 0
424	2504517 5018 0 219124 0 92.438 249 0 1 248 248
425	2509535 5018 0 219124 0 92.438 249 0 3 495 1153
426	2514553 11 0 0 0 0 1 0 0 0 0
427	2514564 11 0 0 0 0 1 0 0 0 0
428	2514575 5105 0 219319 0 92.528 252 0 1 251 251
429	2519680 5105 0 219319 0 92.528 252 0 3 501 1167
430	2524785 11 0 0 0 0 1 0 0 0 0
431	2524796 11 0 0 0 0 1 0 0 0 0
432	2524807 4946 0 219182 0 92.469 245 0 1 244 244
433	2529753 4946 0 219182 0 92.469 245 0 3 487 1135
434	2534699 11 0 0 0 0 1 0 0 0 0
435	2534710 11 0 0 0 0 1 0 0 0 0
436	2534721 5185 0 217451 0 91.748 256 0 1 255 255
437	2539906 5185 0 217451 0 91.748 256 0 3 510 1190
438	2545091 11 0 0 0 0 1 0 0 0 0
439	2545102 11 0 0 0 0 1 0 0 0 0
440	2545113 4909 0 219287 0 92.511 243 0 1 242 242
441	2550022 4909 0 219287 0 92.511 243 0 3 483 1125
442	2554931 11 0 0 0 0 1 0 0 0 0
443	2554942 11 0 0 0 0 1 0 0 0 0
444	2554953 5206 0 218882 0 92.322 257 0 1 256 256
445	2560159 5206 0 218882 0 92.322 257 0 3 511 1191
446	2565365 11 0 0 0 0 1 0 0 0 0
447	2565376 11 0 0 0 0 1 0 0 0 0
448	2565387 5021 0 218774 0 92.276 248 0 1 247 247
449	2570408 5021 0 218774 0 92.276 248 0 3 493 1149
450	2575429 11 0 0 0 0 1 0 0 0 0
451	2575440 11 0 0 0 0 1 0 0 0 0
452	2575451 5280 0 218443 0 92.162 260 0 1 259 259
453	2580731 5280 0 218443 0 92.162 260 0 3 517 1205
454	2586011 11 0 0 0 0 1 0 0 0 0
455	2586022 11 0 0 0 0 1 0 0 0 0
456	2586033 4865 0 219077 0 92.415 240 0 1 239 239
457	2590898 4865 0 219077 0 92.415 240 0 3 477 1111
458	2595763 11 0 0 0 0 1 0 0 0 0
459	2595774 11 0 0 0 0 1 0 0 0 0
460	2595785 5391 0 218896 0 92.327 267 0 1 266 266
461	2601176 5391 0 218896 0 92.327 267 0 3 531 1237
462	2606567 11 0 0 0 0 1 0 0 0 0
463	2606578 11 0 0 0 0 1 0 0 0 0
464	2606589 5160 0 219132 0 92.442 254 0 1 253 253
465	2611749 5160 0 219132 0 92.442 254 0 3 505 1177
466	2616909 11 0 0 0 0 1 0 0 0 0
467	2616920 11 0 0 0 0 1 0 0 0 0
468	2616931 4779 0 219242 0 92.492 236 0 1 235 235
469	2621710 4779 0 219242 0 92.492 236 0 3 469 1093
470	2626489 11 0 0 0 0 1 0 0 0 0
471	2626500 11 0 0 0 0 1 0 0 0 0
472	2626511 5203 0 219259 0 92.497 257 0 1 256 256
473	2631714 5203 0 219259 0 92.497 257 0 3 511 1191
474	2636917 11 0 0 0 0 1 0 0 0 0
475	2636928 11 0 0 0 0 1 0 0 0 0
476	2636939 4980 0 218457 0 92.165 246 0 1 245 245
477	2641919 4980 0 218457 0 92.165 246 0 3 489 1139
478	2646899 11 0 0 0 0 1 0 0 0 0
479	2646910 11 0 0 0 0 1 0 0 0 0
480	2646921 5001 0 217340 0 91.705 247 0 1 246 246
481	2651922 5001 0 217340 0 91.705 247 0 3 492 1148
482	2656923 11 0 0 0 0 1 0 0 0 0
483	2656934 11 0 0 0 0 1 0 0 0 0
484	2656945 5500 0 219169 0 92.465 271 0 1 270 270
485	2662445 5500 0 219169 0 92.465 271 0 3 540 1260
486	2667945 11 0 0 0 0 1 0 0 0 0
487	2667956 11 0 0 0 0 1 0 0 0 0
488	2667967 5170 0 218890 0 92.326 256 0 1 255 255
489	2673137 5170 0 218890 0 92.326 256 0 3 510 1190
490	2678307 11 0 0 0 0 1 0 0 0 0
491	2678318 11 0 0 0 0 1 0 0 0 0
492	2678329 5369 0 218886 0 92.324 265 0 1 264 264
493	2683698 5369 0 218886 0 92.324 265 0 3 528 1232
494	2689067 11 0 0 0 0 1 0 0 0 0
495	2689078 11 0 0 0 0 1 0 0 0 0
496	2689089 4814 0 219005 0 92.385 238 0 1 237 237
497	2693903 4814 0 219005 0 92.385 238 0 3 474 1106
498	2698717 11 0 0 0 0 1 0 0 0 0
499	2698728 11 0 0 0 0 1 0 0 0 0
500	2698739 5076 0 219176 0 92.468 251 0 1 250 250
501	2703815 5076 0 219176 0 92.468 251 0 3 499 1163
502	2708891 11 0 0 0 0 1 0 0 0 0
503	2708902 11 0 0 0 0 1 0 0 0 0
504	2708913 5223 0 219167 0 92.464 258 0 1 257 257
505	2714136 5223 0 219167 0 92.464 258 0 3 513 1195
506	2719359 11 0 0 0 0 1 0 0 0 0
507	2719370 11 0 0 0 0 1 0 0 0 0
508	2719381 5220 0 218983 0 92.378 258 0 1 257 257
509	2724601 5220 0 218983 0 92.378 258 0 3 513 1195
510	2729821 11 0 0 0 0 1 0 0 0 0
511	2729832 11 0 0 0 0 1 0 0 0 0
512	2729843 5091 0 219300 0 92.514 251 0 1 250 250
513	2734934 5091 0 219300 0 92.514 251 0 3 499 1163
514	2740025 11 0 0 0 0 1 0 0 0 0
515	2740036 11 0 0 0 0 1 0 0 0 0
516	2740047 5227 0 219082 0 92.426 258 0 1 257 257
517	2745274 5227 0 219082 0 92.426 258 0 3 513 1195
518	2750501 11 0 0 0 0 1 0 0 0 0
519	2750512 11 0 0 0 0 1 0 0 0 0
520	2750523 5125 0 219075 0 92.404 253 0 1 252 252
521	2755648 5125 0 219075 0 92.404 253 0 3 504 1176
522	2760773 11 0 0 0 0 1 0 0 0 0
523	2760784 11 0 0 0 0 1 0 0 0 0
524	2760795 5039 0 218880 0 92.321 249 0 1 248 248
525	2765834 5039 0 218880 0 92.321 249 0 3 495 1153
526	2770873 11 0 0 0 0 1 0 0 0 0
527	2770884 11 0 0 0 0 1 0 0 0 0
528	2770895 5096 0 218359 0 92.128 252 0 1 251 251
529	2775991 5096 0 218359 0 92.128 252 0 3 501 1167
530	2781087 11 0 0 0 0 1 0 0 0 0
531	2781098 11 0 0 0 0 1 0 0 0 0
532	2781109 5162 0 218502 0 92.192 255 0 1 254 254
533	2786271 5162 0 218502 0 92.192 255 0 3 507 1181
534	2791433 11 0 0 0 0 1 0 0 0 0
535	2791444 11 0 0 0 0 1 0 0 0 0
536	2791455 5104 0 218868 0 92.309 252 0 1 251 251
537	2796559 5104 0 218868 0 92.309 252 0 3 501 1167
538	2801663 11 0 0 0 0 1 0 0 0 0
539	2801674 11 0 0 0 0 1 0 0 0 0
540	2801685 5449 0 218999 0 92.384 269 0 1 268 268
541	2807134 5449 0 218999 0 92.384 269 0 3 535 1247
542	2812583 11 0 0 0 0 1 0 0 0 0
543	2812594 11 0 0 0 0 1 0 0 0 0
544	2812605 5031 0 218838 0 92.295 248 0 1 247 247
545	2817636 5031 0 218838 0 92.295 248 0 3 493 1149
546	2822667 11 0 0 0 0 1 0 0 0 0
547	2822678 11 0 0 0 0 1 0 0 0 0
548	2822689 5214 0 219292 0 92.512 258 0 1 257 257
549	2827903 5214 0 219292 0 92.512 258 0 3 513 1195
550	2833117 11 0 0 0 0 1 0 0 0 0
551	2833128 11 0 0 0 0 1 0 0 0 0
552	2833139 4966 0 219318 0 92.527 246 0 1 245 245
553	2838105 4966 0 219318 0 92.527 246 0 3 489 1139
554	2843071 11 0 0 0 0 1 0 0 0 0
555	2843082 11 0 0 0 0 1 0 0 0 0
556	2843093 4909 0 218586 0 92.224 243 0 1 242 242
557	2848002 4909 0 218586 0 92.224 243 0 3 483 1125
558	2852911 11 0 0 0 0 1 0 0 0 0
559	2852922 11 0 0 0 0 1 0 0 0 0
560	2852933 5061 0 218208 0 92.07 250 0 1 249 249
561	2857994 5061 0 218208 0 92.07 250 0 3 498 1162
562	2863055 11 0 0 0 0 1 0 0 0 0
563	2863066 11 0 0 0 0 1 0 0 0 0
564	2863077 5344 0 219248 0 92.494 263 0 1 262 262
565	2868421 5344 0 219248 0 92.494 263 0 3 523 1219
566	2873765 11 0 0 0 0 1 0 0 0 0
567	2873776 11 0 0 0 0 1 0 0 0 0
568	2873787 5022 0 218670 0 92.245 248 0 1 247 247
569	2878809 5022 0 218670 0 92.245 248 0 3 493 1149
570	2883831 11 0 0 0 0 1 0 0 0 0
571	2883842 11 0 0 0 0 1 0 0 0 0
572	2883853 5240 0 218390 0 92.137 259 0 1 258 258
573	2889093 5240 0 218390 0 92.137 259 0 3 516 1204
574	2894333 11 0 0 0 0 1 0 0 0 0
575	2894344 11 0 0 0 0 1 0 0 0 0
576	2894355 4979 0 218544 0 92.208 246 0 1 245 245
577	2899334 4979 0 218544 0 92.208 246 0 3 489 1139
578	2904313 11 0 0 0 0 1 0 0 0 0
579	2904324 11 0 0 0 0 1 0 0 0 0
580	2904335 5240 0 218713 0 92.261 258 0 1 257 257
581	2909575 5240 0 218713 0 92.261 258 0 3 513 1195
582	2914815 11 0 0 0 0 1 0 0 0 0
583	2914826 11 0 0 0 0 1 0 0 0 0
584	2914837 5097 0 218451 0 92.164 251 0 1 250 250
585	2919934 5097 0 218451 0 92.164 251 0 3 499 1163
586	2925031 11 0 0 0 0 1 0 0 0 0
587	2925042 11 0 0 0 0 1 0 0 0 0
588	2925053 5099 0 218857 0 92.303 252 0 1 251 251
589	2930152 5099 0 218857 0 92.303 252 0 3 501 1167
590	2935251 11 0 0 0 0 1 0 0 0 0
591	2935262 11 0 0 0 0 1 0 0 0 0
592	2935273 5328 0 218324 0 92.116 263 0 1 262 262
593	2940601 5328 0 218324 0 92.116 263 0 3 523 1219
594	2945929 11 0 0 0 0 1 0 0 0 0
595	2945940 11 0 0 0 0 1 0 0 0 0
596	2945951 5343 0 219009 0 92.386 264 0 1 263 263
597	2951294 5343 0 219009 0 92.386 264 0 3 525 1223
598	2956637 11 0 0 0 0 1 0 0 0 0
599	2956648 11 0 0 0 0 1 0 0 0 0
600	2956659 4795 0 219260 0 92.498 236 0 1 235 235
601	2961454 4795 0 219260 0 92.498 236 0 3 469 1093
602	2966249 11 0 0 0 0 1 0 0 0 0
603	2966260 11 0 0 0 0 1 0 0 0 0
604	2966271 4921 0 219217 0 92.487 243 0 1 242 242
605	2971192 4921 0 219217 0 92.487 243 0 3 483 1125
606	2976113 11 0 0 0 0 1 0 0 0 0
607	2976124 11 0 0 0 0 1 0 0 0 0
608	2976135 4859 0 219044 0 92.396 240 0 1 239 239
609	2980994 4859 0 219044 0 92.396 240 0 3 477 1111
610	2985853 11 0 0 0 0 1 0 0 0 0
611	2985864 11 0 0 0 0 1 0 0 0 0
612	2985875 5218 0 219055 0 92.399 258 0 1 257 257
613	2991093 5218 0 219055 0 92.399 258 0 3 513 1195
614	2996311 11 0 0 0 0 1 0 0 0 0
615	2996322 11 0 0 0 0 1 0 0 0 0
616	2996333 5070 0 219283 0 92.508 250 0 1 249 249
617	3001403 5070 0 219283 0 92.508 250 0 3 498 1162
618	3006473 11 0 0 0 0 1 0 0 0 0
619	3006484 11 0 0 0 0 1 0 0 0 0
620	3006495 5008 0 218820 0 92.289 247 0 1 246 246
621	3011503 5008 0 218820 0 92.289 247 0 3 492 1148
622	3016511 11 0 0 0 0 1 0 0 0 0
623	3016522 11 0 0 0 0 1 0 0 0 0
624	3016533 4749 0 218933 0 92.358 234 0 1 233 233
625	3021282 4749 0 218933 0 92.358 234 0 3 465 1083
626	3026031 11 0 0 0 0 1 0 0 0 0
627	3026042 11 0 0 0 0 1 0 0 0 0
628	3026053 4950 0 218932 0 92.358 245 0 1 244 244
629	3031003 4950 0 218932 0 92.358 245 0 3 487 1135
630	3035953 11 0 0 0 0 1 0 0 0 0
631	3035964 11 0 0 0 0 1 0 0 0 0
632	3035975 5001 0 219010 0 92.386 248 0 1 247 247
633	3040976 5001 0 219010 0 92.386 248 0 3 493 1149
634	3045977 11 0 0 0 0 1 0 0 0 0
635	3045988 11 0 0 0 0 1 0 0 0 0
636	3045999 5223 0 218943 0 92.362 259 0 1 258 258
637	3051222 5223 0 218943 0 92.362 259 0 3 516 1204
638	3056445 11 0 0 0 0 1 0 0 0 0
639	3056456 11 0 0 0 0 1 0 0 0 0
640	3056467 5079 0 218335 0 92.121 251 0 1 250 250
641	3061546 5079 0 218335 0 92.121 251 0 3 499 1163
642	3066625 11 0 0 0 0 1 0 0 0 0
643	3066636 11 0 0 0 0 1 0 0 0 0
644	3066647 5383 0 219036 0 92.391 266 0 1 265 265
645	3072030 5383 0 219036 0 92.391 266 0 3 529 1233
646	3077413 11 0 0 0 0 1 0 0 0 0
647	3077424 11 0 0 0 0 1 0 0 0 0
648	3077435 4915 0 218875 0 92.316 244 0 1 243 243
649	3082350 4915 0 218875 0 92.316 244 0 3 486 1134
650	3087265 11 0 0 0 0 1 0 0 0 0
651	3087276 11 0 0 0 0 1 0 0 0 0
652	3087287 5134 0 219209 0 92.484 254 0 1 253 253
653	3092421 5134 0 219209 0 92.484 254 0 3 505 1177
654	3097555 11 0 0 0 0 1 0 0 0 0
655	3097566 11 0 0 0 0 1 0 0 0 0
656	3097577 5165 0 219293 0 92.512 256 0 1 255 255
657	3102742 5165 0 219293 0 92.512 256 0 3 510 1190
658	3107907 11 0 0 0 0 1 0 0 0 0
659	3107918 11 0 0 0 0 1 0 0 0 0
660	3107929 5417 0 219350 0 92.54 268 0 1 267 267
661	3113346 5417 0 219350 0 92.54 268 0 3 534 1246
662	3118763 11 0 0 0 0 1 0 0 0 0
663	3118774 11 0 0 0 0 1 0 0 0 0
664	3118785 5124 0 217995 0 91.956 253 0 1 252 252
665	3123909 5124 0 217995 0 91.956 253 0 3 504 1176
666	3129033 11 0 0 0 0 1 0 0 0 0
667	3129044 11 0 0 0 0 1 0 0 0 0
668	3129055 4989 0 218954 0 92.365 246 0 1 245 245
669	3134044 4989 0 218954 0 92.365 246 0 3 489 1139
670	3139033 11 0 0 0 0 1 0 0 0 0
671	3139044 11 0 0 0 0 1 0 0 0 0
672	3139055 5113 0 218978 0 92.374 252 0 1 251 251
673	3144168 5113 0 218978 0 92.374 252 0 3 501 1167
674	3149281 11 0 0 0 0 1 0 0 0 0
675	3149292 11 0 0 0 0 1 0 0 0 0
676	3149303 5260 0 218554 0 92.212 260 0 1 259 259
677	3154563 5260 0 218554 0 92.212 260 0 3 517 1205
678	3159823 11 0 0 0 0 1 0 0 0 0
679	3159834 11 0 0 0 0 1 0 0 0 0
680	3159845 5057 0 219092 0 92.43 249 0 1 248 248
681	3164902 5057 0 219092 0 92.43 249 0 3 495 1153
682	3169959 11 0 0 0 0 1 0 0 0 0
683	3169970 11 0 0 0 0 1 0 0 0 0
684	3169981 5124 0 218980 0 92.376 253 0 1 252 252
685	3175105 5124 0 218980 0 92.376 253 0 3 504 1176
686	3180229 11 0 0 0 0 1 0 0 0 0
687	3180240 11 0 0 0 0 1 0 0 0 0
688	3180251 4944 0 219344 0 92.537 244 0 1 243 243
689	3185195 4944 0 219344 0 92.537 244 0 3 486 1134
690	3190139 11 0 0 0 0 1 0 0 0 0
691	3190150 11 0 0 0 0 1 0 0 0 0
692	3190161 5379 0 219001 0 92.384 266 0 1 265 265
693	3195540 5379 0 219001 0 92.384 266 0 3 529 1233
694	3200919 11 0 0 0 0 1 0 0 0 0
695	3200930 11 0 0 0 0 1 0 0 0 0
696	3200941 5104 0 219351 0 92.54 252 0 1 251 251
697	3206045 5104 0 219351 0 92.54 252 0 3 501 1167
698	3211149 11 0 0 0 0 1 0 0 0 0
699	3211160 11 0 0 0 0 1 0 0 0 0
700	3211171 5185 0 218626 0 92.238 256 0 1 255 255
701	3216356 5185 0 218626 0 92.238 256 0 3 510 1190
702	3221541 11 0 0 0 0 1 0 0 0 0
703	3221552 11 0 0 0 0 1 0 0 0 0
704	3221563 5441 0 219234 0 92.491 269 0 1 268 268
705	3227004 5441 0 219234 0 92.491 269 0 3 535 1247
706	3232445 11 0 0 0 0 1 0 0 0 0
707	3232456 11 0 0 0 0 1 0 0 0 0
708	3232467 4930 0 218262 0 92.094 243 0 1 242 242
709	3237397 4930 0 218262 0 92.094 243 0 3 483 1125
710	3242327 11 0 0 0 0 1 0 0 0 0
711	3242338 11 0 0 0 0 1 0 0 0 0
712	3242349 4933 0 219218 0 92.487 243 0 1 242 242
713	3247282 4933 0 219218 0 92.487 243 0 3 483 1125
714	3252215 11 0 0 0 0 1 0 0 0 0
715	3252226 11 0 0 0 0 1 0 0 0 0
716	3252237 5059 0 217351 0 91.708 249 0 1 248 248
717	3257296 5059 0 217351 0 91.708 249 0 3 495 1153
718	3262355 11 0 0 0 0 1 0 0 0 0
719	3262366 11 0 0 0 0 1 0 0 0 0
720	3262377 5258 0 219323 0 92.53 260 0 1 259 259
721	3267635 5258 0 219323 0 92.53 260 0 3 517 1205
722	3272893 11 0 0 0 0 1 0 0 0 0
723	3272904 11 0 0 0 0 1 0 0 0 0
724	3272915 4936 0 219348 0 92.539 244 0 1 243 243
725	3277851 4936 0 219348 0 92.539 244 0 3 486 1134
726	3282787 11 0 0 0 0 1 0 0 0 0
727	3282798 11 0 0 0 0 1 0 0 0 0
728	3282809 4853 0 218982 0 92.378 241 0 1 240 240
729	3287662 4853 0 218982 0 92.378 241 0 3 480 1120
730	3292515 11 0 0 0 0 1 0 0 0 0
731	3292526 11 0 0 0 0 1 0 0 0 0
732	3292537 4858 0 218808 0 92.285 240 0 1 239 239
733	3297395 4858 0 218808 0 92.285 240 0 3 477 1111
734	3302253 11 0 0 0 0 1 0 0 0 0
735	3302264 11 0 0 0 0 1 0 0 0 0
736	3302275 5059 0 219255 0 92.496 250 0 1 249 249
737	3307334 5059 0 219255 0 92.496 250 0 3 498 1162
738	3312393 11 0 0 0 0 1 0 0 0 0
739	3312404 11 0 0 0 0 1 0 0 0 0
740	3312415 4768 0 218567 0 92.218 235 0 1 234 234
741	3317183 4768 0 218567 0 92.218 235 0 3 468 1092
742	3321951 11 0 0 0 0 1 0 0 0 0
743	3321962 11 0 0 0 0 1 0 0 0 0
744	3321973 5069 0 218668 0 92.245 251 0 1 250 250
745	3327042 5069 0 218668 0 92.245 251 0 3 499 1163
746	3332111 11 0 0 0 0 1 0 0 0 0
747	3332122 11 0 0 0 0 1 0 0 0 0
748	3332133 5085 0 218926 0 92.343 252 0 1 251 251
749	3337218 5085 0 218926 0 92.343 252 0 3 501 1167
750	3342303 11 0 0 0 0 1 0 0 0 0
751	3342314 11 0 0 0 0 1 0 0 0 0
752	3342325 5146 0 218705 0 92.259 254 0 1 253 253
753	3347471 5146 0 218705 0 92.259 254 0 3 505 1177
754	3352617 11 0 0 0 0 1 0 0 0 0
755	3352628 11 0 0 0 0 1 0 0 0 0
756	3352639 5131 0 218632 0 92.239 254 0 1 253 253
757	3357770 5131 0 218632 0 92.239 254 0 3 505 1177
758	3362901 11 0 0 0 0 1 0 0 0 0
759	3362912 11 0 0 0 0 1 0 0 0 0
760	3362923 4896 0 218490 0 92.185 242 0 1 241 241
761	3367819 4896 0 218490 0 92.185 242 0 3 481 1121
762	3372715 11 0 0 0 0 1 0 0 0 0
763	3372726 11 0 0 0 0 1 0 0 0 0
764	3372737 4994 0 219208 0 92.484 247 0 1 246 246
765	3377731 4994 0 219208 0 92.484 247 0 3 492 1148
766	3382725 11 0 0 0 0 1 0 0 0 0
767	3382736 11 0 0 0 0 1 0 0 0 0
768	3382747 4772 0 218955 0 92.365 236 0 1 235 235
769	3387519 4772 0 218955 0 92.365 236 0 3 469 1093
770	3392291 11 0 0 0 0 1 0 0 0 0
771	3392302 11 0 0 0 0 1 0 0 0 0
772	3392313 4715 0 218986 0 92.379 233 0 1 232 232
773	3397028 4715 0 218986 0 92.379 233 0 3 463 1079
774	3401743 11 0 0 0 0 1 0 0 0 0
775	3401754 11 0 0 0 0 1 0 0 0 0
776	3401765 5218 0 218519 0 92.2 258 0 1 257 257
777	3406983 5218 0 218519 0 92.2 258 0 3 513 1195
778	3412201 11 0 0 0 0 1 0 0 0 0
779	3412212 11 0 0 0 0 1 0 0 0 0
780	3412223 5273 0 219364 0 92.546 261 0 1 260 260
781	3417496 5273 0 219364 0 92.546 261 0 3 519 1209
782	3422769 11 0 0 0 0 1 0 0 0 0
783	3422780 11 0 0 0 0 1 0 0 0 0
784	3422791 5125 0 218542 0 92.207 253 0 1 252 252
785	3427916 5125 0 218542 0 92.207 253 0 3 504 1176
786	3433041 11 0 0 0 0 1 0 0 0 0
787	3433052 11 0 0 0 0 1 0 0 0 0
788	3433063 5097 0 219232 0 92.49 252 0 1 251 251
789	3438160 5097 0 219232 0 92.49 252 0 3 501 1167
790	3443257 11 0 0 0 0 1 0 0 0 0
791	3443268 11 0 0 0 0 1 0 0 0 0
792	3443279 4916 0 217563 0 91.807 243 0 1 242 242
793	3448195 4916 0 217563 0 91.807 243 0 3 483 1125
794	3453111 11 0 0 0 0 1 0 0 0 0
795	3453122 11 0 0 0 0 1 0 0 0 0
796	3453133 5078 0 219106 0 92.433 251 0 1 250 250
797	3458211 5078 0 219106 0 92.433 251 0 3 499 1163
798	3463289 11 0 0 0 0 1 0 0 0 0
799	3463300 11 0 0 0 0 1 0 0 0 0
800	3463311 5077 0 219281 0 92.507 252 0 1 251 251
801	3468388 5077 0 219281 0 92.507 252 0 3 501 1167
802	3473465 11 0 0 0 0 1 0 0 0 0
803	3473476 11 0 0 0 0 1 0 0 0 0
804	3473487 5394 0 219083 0 92.426 267 0 1 266 266
805	3478881 5394 0 219083 0 92.426 267 0 3 531 1237
806	3484275 11 0 0 0 0 1 0 0 0 0
807	3484286 11 0 0 0 0 1 0 0 0 0
808	3484297 5160 0 219391 0 92.552 255 0 1 254 254
809	3489457 5160 0 219391 0 92.552 255 0 3 507 1181
810	3494617 11 0 0 0 0 1 0 0 0 0
811	3494628 11 0 0 0 0 1 0 0 0 0
812	3494639 4885 0 219381 0 92.55 241 0 1 240 240
813	3499524 4885 0 219381 0 92.55 241 0 3 480 1120
814	3504409 11 0 0 0 0 1 0 0 0 0
815	3504420 11 0 0 0 0 1 0 0 0 0
816	3504431 5124 0 219361 0 92.545 253 0 1 252 252
817	3509555 5124 0 219361 0 92.545 253 0 3 504 1176
818	3514679 11 0 0 0 0 1 0 0 0 0
819	3514690 11 0 0 0 0 1 0 0 0 0
820	3514701 5066 0 219140 0 92.446 250 0 1 249 249
821	3519767 5066 0 219140 0 92.446 250 0 3 498 1162
822	3524833 11 0 0 0 0 1 0 0 0 0
823	3524844 11 0 0 0 0 1 0 0 0 0
