version 2
run Scenario0-0-20170901-22:41:20-7208
attr configname Scenario0
attr datetime 20170901-22:41:20
attr experiment Scenario0
attr inifile omnetpp.ini
attr iterationvars ""
attr iterationvars2 $repetition=0
attr measurement ""
attr network simulations.Lora
attr processid 7208
attr repetition 0
attr replication #0
attr resultdir results
attr runnumber 0
attr seedset 0
param Lora.CR 4
param Lora.GL 0
param Lora.LpLd0 127.41
param Lora.bandwidth 125000
param Lora.d0 40.0
param Lora.endDevice[*].iaTime exponential(0.2s)
param Lora.endDevice[*].packetSize 20
param Lora.gamma 2.08
param Lora.minsensitivity -133.25
param Lora.numGateways 4
param Lora.numHosts 200
param Lora.spreadingFactor 12
param Lora.txPow 14

vector 0  Lora.gateway[0]  collision1:vector  ETV
attr source  collisionCH1
attr title  "collisionCH1, vector"
vector 1  Lora.gateway[0]  collision2:vector  ETV
attr source  collisionCH2
attr title  "collisionCH2, vector"
vector 2  Lora.gateway[0]  collision3:vector  ETV
attr source  collisionCH3
attr title  "collisionCH3, vector"
vector 3  Lora.gateway[0]  received1:vector  ETV
attr source  receivedCH1
attr title  "receivedCH1, vector"
vector 4  Lora.gateway[0]  received2:vector  ETV
attr source  receivedCH2
attr title  "receivedCH2, vector"
vector 5  Lora.gateway[0]  received3:vector  ETV
attr source  receivedCH3
attr title  "receivedCH3, vector"
vector 6  Lora.gateway[1]  collision1:vector  ETV
attr source  collisionCH1
attr title  "collisionCH1, vector"
vector 7  Lora.gateway[1]  collision2:vector  ETV
attr source  collisionCH2
attr title  "collisionCH2, vector"
vector 8  Lora.gateway[1]  collision3:vector  ETV
attr source  collisionCH3
attr title  "collisionCH3, vector"
vector 9  Lora.gateway[1]  received1:vector  ETV
attr source  receivedCH1
attr title  "receivedCH1, vector"
vector 10  Lora.gateway[1]  received2:vector  ETV
attr source  receivedCH2
attr title  "receivedCH2, vector"
vector 11  Lora.gateway[1]  received3:vector  ETV
attr source  receivedCH3
attr title  "receivedCH3, vector"
vector 12  Lora.gateway[2]  collision1:vector  ETV
attr source  collisionCH1
attr title  "collisionCH1, vector"
vector 13  Lora.gateway[2]  collision2:vector  ETV
attr source  collisionCH2
attr title  "collisionCH2, vector"
vector 14  Lora.gateway[2]  collision3:vector  ETV
attr source  collisionCH3
attr title  "collisionCH3, vector"
vector 15  Lora.gateway[2]  received1:vector  ETV
attr source  receivedCH1
attr title  "receivedCH1, vector"
vector 16  Lora.gateway[2]  received2:vector  ETV
attr source  receivedCH2
attr title  "receivedCH2, vector"
vector 17  Lora.gateway[2]  received3:vector  ETV
attr source  receivedCH3
attr title  "receivedCH3, vector"
vector 18  Lora.gateway[3]  collision1:vector  ETV
attr source  collisionCH1
attr title  "collisionCH1, vector"
vector 19  Lora.gateway[3]  collision2:vector  ETV
attr source  collisionCH2
attr title  "collisionCH2, vector"
vector 20  Lora.gateway[3]  collision3:vector  ETV
attr source  collisionCH3
attr title  "collisionCH3, vector"
vector 21  Lora.gateway[3]  received1:vector  ETV
attr source  receivedCH1
attr title  "receivedCH1, vector"
vector 22  Lora.gateway[3]  received2:vector  ETV
attr source  receivedCH2
attr title  "receivedCH2, vector"
vector 23  Lora.gateway[3]  received3:vector  ETV
attr source  receivedCH3
attr title  "receivedCH3, vector"
vector 24  Lora.endDevice[0]  CH1state:vector  ETV
attr enum  IDLE=0,BUSY=1,TRANSMITTING=2
attr source  state
attr title  "Channel_1 state, vector"
vector 25  Lora.endDevice[0]  usedCh:vector  ETV
attr source  usedChannel
attr title  "UsedChannel, vector"
vector 26  Lora.endDevice[0]  SentmessagesStats:vector  ETV
attr source  Sentmessages
attr title  "Sentmessages, vector"
vector 27  Lora.endDevice[0]  LostmessagesStats:vector  ETV
attr source  Lostmessages
attr title  "Lostmessages, vector"
vector 28  Lora.endDevice[1]  CH1state:vector  ETV
attr enum  IDLE=0,BUSY=1,TRANSMITTING=2
attr source  state
attr title  "Channel_1 state, vector"
vector 29  Lora.endDevice[1]  usedCh:vector  ETV
attr source  usedChannel
attr title  "UsedChannel, vector"
vector 30  Lora.endDevice[1]  SentmessagesStats:vector  ETV
attr source  Sentmessages
attr title  "Sentmessages, vector"
vector 31  Lora.endDevice[1]  LostmessagesStats:vector  ETV
attr source  Lostmessages
attr title  "Lostmessages, vector"
vector 32  Lora.endDevice[2]  CH1state:vector  ETV
attr enum  IDLE=0,BUSY=1,TRANSMITTING=2
attr source  state
attr title  "Channel_1 state, vector"
vector 33  Lora.endDevice[2]  usedCh:vector  ETV
attr source  usedChannel
attr title  "UsedChannel, vector"
vector 34  Lora.endDevice[2]  SentmessagesStats:vector  ETV
attr source  Sentmessages
attr title  "Sentmessages, vector"
vector 35  Lora.endDevice[2]  LostmessagesStats:vector  ETV
attr source  Lostmessages
attr title  "Lostmessages, vector"
vector 36  Lora.endDevice[3]  CH1state:vector  ETV
attr enum  IDLE=0,BUSY=1,TRANSMITTING=2
attr source  state
attr title  "Channel_1 state, vector"
vector 37  Lora.endDevice[3]  usedCh:vector  ETV
attr source  usedChannel
attr title  "UsedChannel, vector"
vector 38  Lora.endDevice[3]  SentmessagesStats:vector  ETV
attr source  Sentmessages
attr title  "Sentmessages, vector"
vector 39  Lora.endDevice[3]  LostmessagesStats:vector  ETV
attr source  Lostmessages
attr title  "Lostmessages, vector"
vector 40  Lora.endDevice[4]  CH1state:vector  ETV
attr enum  IDLE=0,BUSY=1,TRANSMITTING=2
attr source  state
attr title  "Channel_1 state, vector"
vector 41  Lora.endDevice[4]  usedCh:vector  ETV
attr source  usedChannel
attr title  "UsedChannel, vector"
vector 42  Lora.endDevice[4]  SentmessagesStats:vector  ETV
attr source  Sentmessages
attr title  "Sentmessages, vector"
vector 43  Lora.endDevice[4]  LostmessagesStats:vector  ETV
attr source  Lostmessages
attr title  "Lostmessages, vector"
vector 44  Lora.endDevice[5]  CH1state:vector  ETV
attr enum  IDLE=0,BUSY=1,TRANSMITTING=2
attr source  state
attr title  "Channel_1 state, vector"
vector 45  Lora.endDevice[5]  usedCh:vector  ETV
attr source  usedChannel
attr title  "UsedChannel, vector"
vector 46  Lora.endDevice[5]  SentmessagesStats:vector  ETV
attr source  Sentmessages
attr title  "Sentmessages, vector"
vector 47  Lora.endDevice[5]  LostmessagesStats:vector  ETV
attr source  Lostmessages
attr title  "Lostmessages, vector"
vector 48  Lora.endDevice[6]  CH1state:vector  ETV
attr enum  IDLE=0,BUSY=1,TRANSMITTING=2
attr source  state
attr title  "Channel_1 state, vector"
vector 49  Lora.endDevice[6]  usedCh:vector  ETV
attr source  usedChannel
attr title  "UsedChannel, vector"
vector 50  Lora.endDevice[6]  SentmessagesStats:vector  ETV
attr source  Sentmessages
attr title  "Sentmessages, vector"
vector 51  Lora.endDevice[6]  LostmessagesStats:vector  ETV
attr source  Lostmessages
attr title  "Lostmessages, vector"
vector 52  Lora.endDevice[7]  CH1state:vector  ETV
attr enum  IDLE=0,BUSY=1,TRANSMITTING=2
attr source  state
attr title  "Channel_1 state, vector"
vector 53  Lora.endDevice[7]  usedCh:vector  ETV
attr source  usedChannel
attr title  "UsedChannel, vector"
vector 54  Lora.endDevice[7]  SentmessagesStats:vector  ETV
attr source  Sentmessages
attr title  "Sentmessages, vector"
vector 55  Lora.endDevice[7]  LostmessagesStats:vector  ETV
attr source  Lostmessages
attr title  "Lostmessages, vector"
vector 56  Lora.endDevice[8]  CH1state:vector  ETV
attr enum  IDLE=0,BUSY=1,TRANSMITTING=2
attr source  state
attr title  "Channel_1 state, vector"
vector 57  Lora.endDevice[8]  usedCh:vector  ETV
attr source  usedChannel
attr title  "UsedChannel, vector"
vector 58  Lora.endDevice[8]  SentmessagesStats:vector  ETV
attr source  Sentmessages
attr title  "Sentmessages, vector"
vector 59  Lora.endDevice[8]  LostmessagesStats:vector  ETV
attr source  Lostmessages
attr title  "Lostmessages, vector"
vector 60  Lora.endDevice[9]  CH1state:vector  ETV
attr enum  IDLE=0,BUSY=1,TRANSMITTING=2
attr source  state
attr title  "Channel_1 state, vector"
vector 61  Lora.endDevice[9]  usedCh:vector  ETV
attr source  usedChannel
attr title  "UsedChannel, vector"
vector 62  Lora.endDevice[9]  SentmessagesStats:vector  ETV
attr source  Sentmessages
attr title  "Sentmessages, vector"
vector 63  Lora.endDevice[9]  LostmessagesStats:vector  ETV
attr source  Lostmessages
attr title  "Lostmessages, vector"
vector 64  Lora.endDevice[10]  CH1state:vector  ETV
attr enum  IDLE=0,BUSY=1,TRANSMITTING=2
attr source  state
attr title  "Channel_1 state, vector"
vector 65  Lora.endDevice[10]  usedCh:vector  ETV
attr source  usedChannel
attr title  "UsedChannel, vector"
vector 66  Lora.endDevice[10]  SentmessagesStats:vector  ETV
attr source  Sentmessages
attr title  "Sentmessages, vector"
vector 67  Lora.endDevice[10]  LostmessagesStats:vector  ETV
attr source  Lostmessages
attr title  "Lostmessages, vector"
vector 68  Lora.endDevice[11]  CH1state:vector  ETV
attr enum  IDLE=0,BUSY=1,TRANSMITTING=2
attr source  state
attr title  "Channel_1 state, vector"
vector 69  Lora.endDevice[11]  usedCh:vector  ETV
attr source  usedChannel
attr title  "UsedChannel, vector"
vector 70  Lora.endDevice[11]  SentmessagesStats:vector  ETV
attr source  Sentmessages
attr title  "Sentmessages, vector"
vector 71  Lora.endDevice[11]  LostmessagesStats:vector  ETV
attr source  Lostmessages
attr title  "Lostmessages, vector"
vector 72  Lora.endDevice[12]  CH1state:vector  ETV
attr enum  IDLE=0,BUSY=1,TRANSMITTING=2
attr source  state
attr title  "Channel_1 state, vector"
vector 73  Lora.endDevice[12]  usedCh:vector  ETV
attr source  usedChannel
attr title  "UsedChannel, vector"
vector 74  Lora.endDevice[12]  SentmessagesStats:vector  ETV
attr source  Sentmessages
attr title  "Sentmessages, vector"
vector 75  Lora.endDevice[12]  LostmessagesStats:vector  ETV
attr source  Lostmessages
attr title  "Lostmessages, vector"
vector 76  Lora.endDevice[13]  CH1state:vector  ETV
attr enum  IDLE=0,BUSY=1,TRANSMITTING=2
attr source  state
attr title  "Channel_1 state, vector"
vector 77  Lora.endDevice[13]  usedCh:vector  ETV
attr source  usedChannel
attr title  "UsedChannel, vector"
vector 78  Lora.endDevice[13]  SentmessagesStats:vector  ETV
attr source  Sentmessages
attr title  "Sentmessages, vector"
vector 79  Lora.endDevice[13]  LostmessagesStats:vector  ETV
attr source  Lostmessages
attr title  "Lostmessages, vector"
vector 80  Lora.endDevice[14]  CH1state:vector  ETV
attr enum  IDLE=0,BUSY=1,TRANSMITTING=2
attr source  state
attr title  "Channel_1 state, vector"
vector 81  Lora.endDevice[14]  usedCh:vector  ETV
attr source  usedChannel
attr title  "UsedChannel, vector"
vector 82  Lora.endDevice[14]  SentmessagesStats:vector  ETV
attr source  Sentmessages
attr title  "Sentmessages, vector"
vector 83  Lora.endDevice[14]  LostmessagesStats:vector  ETV
attr source  Lostmessages
attr title  "Lostmessages, vector"
vector 84  Lora.endDevice[15]  CH1state:vector  ETV
attr enum  IDLE=0,BUSY=1,TRANSMITTING=2
attr source  state
attr title  "Channel_1 state, vector"
vector 85  Lora.endDevice[15]  usedCh:vector  ETV
attr source  usedChannel
attr title  "UsedChannel, vector"
vector 86  Lora.endDevice[15]  SentmessagesStats:vector  ETV
attr source  Sentmessages
attr title  "Sentmessages, vector"
vector 87  Lora.endDevice[15]  LostmessagesStats:vector  ETV
attr source  Lostmessages
attr title  "Lostmessages, vector"
vector 88  Lora.endDevice[16]  CH1state:vector  ETV
attr enum  IDLE=0,BUSY=1,TRANSMITTING=2
attr source  state
attr title  "Channel_1 state, vector"
vector 89  Lora.endDevice[16]  usedCh:vector  ETV
attr source  usedChannel
attr title  "UsedChannel, vector"
vector 90  Lora.endDevice[16]  SentmessagesStats:vector  ETV
attr source  Sentmessages
attr title  "Sentmessages, vector"
vector 91  Lora.endDevice[16]  LostmessagesStats:vector  ETV
attr source  Lostmessages
attr title  "Lostmessages, vector"
vector 92  Lora.endDevice[17]  CH1state:vector  ETV
attr enum  IDLE=0,BUSY=1,TRANSMITTING=2
attr source  state
attr title  "Channel_1 state, vector"
vector 93  Lora.endDevice[17]  usedCh:vector  ETV
attr source  usedChannel
attr title  "UsedChannel, vector"
vector 94  Lora.endDevice[17]  SentmessagesStats:vector  ETV
attr source  Sentmessages
attr title  "Sentmessages, vector"
vector 95  Lora.endDevice[17]  LostmessagesStats:vector  ETV
attr source  Lostmessages
attr title  "Lostmessages, vector"
vector 96  Lora.endDevice[18]  CH1state:vector  ETV
attr enum  IDLE=0,BUSY=1,TRANSMITTING=2
attr source  state
attr title  "Channel_1 state, vector"
vector 97  Lora.endDevice[18]  usedCh:vector  ETV
attr source  usedChannel
attr title  "UsedChannel, vector"
vector 98  Lora.endDevice[18]  SentmessagesStats:vector  ETV
attr source  Sentmessages
attr title  "Sentmessages, vector"
vector 99  Lora.endDevice[18]  LostmessagesStats:vector  ETV
attr source  Lostmessages
attr title  "Lostmessages, vector"
vector 100  Lora.endDevice[19]  CH1state:vector  ETV
attr enum  IDLE=0,BUSY=1,TRANSMITTING=2
attr source  state
attr title  "Channel_1 state, vector"
vector 101  Lora.endDevice[19]  usedCh:vector  ETV
attr source  usedChannel
attr title  "UsedChannel, vector"
vector 102  Lora.endDevice[19]  SentmessagesStats:vector  ETV
attr source  Sentmessages
attr title  "Sentmessages, vector"
vector 103  Lora.endDevice[19]  LostmessagesStats:vector  ETV
attr source  Lostmessages
attr title  "Lostmessages, vector"
vector 104  Lora.endDevice[20]  CH1state:vector  ETV
attr enum  IDLE=0,BUSY=1,TRANSMITTING=2
attr source  state
attr title  "Channel_1 state, vector"
vector 105  Lora.endDevice[20]  usedCh:vector  ETV
attr source  usedChannel
attr title  "UsedChannel, vector"
vector 106  Lora.endDevice[20]  SentmessagesStats:vector  ETV
attr source  Sentmessages
attr title  "Sentmessages, vector"
vector 107  Lora.endDevice[20]  LostmessagesStats:vector  ETV
attr source  Lostmessages
attr title  "Lostmessages, vector"
vector 108  Lora.endDevice[21]  CH1state:vector  ETV
attr enum  IDLE=0,BUSY=1,TRANSMITTING=2
attr source  state
attr title  "Channel_1 state, vector"
vector 109  Lora.endDevice[21]  usedCh:vector  ETV
attr source  usedChannel
attr title  "UsedChannel, vector"
vector 110  Lora.endDevice[21]  SentmessagesStats:vector  ETV
attr source  Sentmessages
attr title  "Sentmessages, vector"
vector 111  Lora.endDevice[21]  LostmessagesStats:vector  ETV
attr source  Lostmessages
attr title  "Lostmessages, vector"
vector 112  Lora.endDevice[22]  CH1state:vector  ETV
attr enum  IDLE=0,BUSY=1,TRANSMITTING=2
attr source  state
attr title  "Channel_1 state, vector"
vector 113  Lora.endDevice[22]  usedCh:vector  ETV
attr source  usedChannel
attr title  "UsedChannel, vector"
vector 114  Lora.endDevice[22]  SentmessagesStats:vector  ETV
attr source  Sentmessages
attr title  "Sentmessages, vector"
vector 115  Lora.endDevice[22]  LostmessagesStats:vector  ETV
attr source  Lostmessages
attr title  "Lostmessages, vector"
vector 116  Lora.endDevice[23]  CH1state:vector  ETV
attr enum  IDLE=0,BUSY=1,TRANSMITTING=2
attr source  state
attr title  "Channel_1 state, vector"
vector 117  Lora.endDevice[23]  usedCh:vector  ETV
attr source  usedChannel
attr title  "UsedChannel, vector"
vector 118  Lora.endDevice[23]  SentmessagesStats:vector  ETV
attr source  Sentmessages
attr title  "Sentmessages, vector"
vector 119  Lora.endDevice[23]  LostmessagesStats:vector  ETV
attr source  Lostmessages
attr title  "Lostmessages, vector"
vector 120  Lora.endDevice[24]  CH1state:vector  ETV
attr enum  IDLE=0,BUSY=1,TRANSMITTING=2
attr source  state
attr title  "Channel_1 state, vector"
vector 121  Lora.endDevice[24]  usedCh:vector  ETV
attr source  usedChannel
attr title  "UsedChannel, vector"
vector 122  Lora.endDevice[24]  SentmessagesStats:vector  ETV
attr source  Sentmessages
attr title  "Sentmessages, vector"
vector 123  Lora.endDevice[24]  LostmessagesStats:vector  ETV
attr source  Lostmessages
attr title  "Lostmessages, vector"
vector 124  Lora.endDevice[25]  CH1state:vector  ETV
attr enum  IDLE=0,BUSY=1,TRANSMITTING=2
attr source  state
attr title  "Channel_1 state, vector"
vector 125  Lora.endDevice[25]  usedCh:vector  ETV
attr source  usedChannel
attr title  "UsedChannel, vector"
vector 126  Lora.endDevice[25]  SentmessagesStats:vector  ETV
attr source  Sentmessages
attr title  "Sentmessages, vector"
vector 127  Lora.endDevice[25]  LostmessagesStats:vector  ETV
attr source  Lostmessages
attr title  "Lostmessages, vector"
vector 128  Lora.endDevice[26]  CH1state:vector  ETV
attr enum  IDLE=0,BUSY=1,TRANSMITTING=2
attr source  state
attr title  "Channel_1 state, vector"
vector 129  Lora.endDevice[26]  usedCh:vector  ETV
attr source  usedChannel
attr title  "UsedChannel, vector"
vector 130  Lora.endDevice[26]  SentmessagesStats:vector  ETV
attr source  Sentmessages
attr title  "Sentmessages, vector"
vector 131  Lora.endDevice[26]  LostmessagesStats:vector  ETV
attr source  Lostmessages
attr title  "Lostmessages, vector"
vector 132  Lora.endDevice[27]  CH1state:vector  ETV
attr enum  IDLE=0,BUSY=1,TRANSMITTING=2
attr source  state
attr title  "Channel_1 state, vector"
vector 133  Lora.endDevice[27]  usedCh:vector  ETV
attr source  usedChannel
attr title  "UsedChannel, vector"
vector 134  Lora.endDevice[27]  SentmessagesStats:vector  ETV
attr source  Sentmessages
attr title  "Sentmessages, vector"
vector 135  Lora.endDevice[27]  LostmessagesStats:vector  ETV
attr source  Lostmessages
attr title  "Lostmessages, vector"
vector 136  Lora.endDevice[28]  CH1state:vector  ETV
attr enum  IDLE=0,BUSY=1,TRANSMITTING=2
attr source  state
attr title  "Channel_1 state, vector"
vector 137  Lora.endDevice[28]  usedCh:vector  ETV
attr source  usedChannel
attr title  "UsedChannel, vector"
vector 138  Lora.endDevice[28]  SentmessagesStats:vector  ETV
attr source  Sentmessages
attr title  "Sentmessages, vector"
vector 139  Lora.endDevice[28]  LostmessagesStats:vector  ETV
attr source  Lostmessages
attr title  "Lostmessages, vector"
vector 140  Lora.endDevice[29]  CH1state:vector  ETV
attr enum  IDLE=0,BUSY=1,TRANSMITTING=2
attr source  state
attr title  "Channel_1 state, vector"
vector 141  Lora.endDevice[29]  usedCh:vector  ETV
attr source  usedChannel
attr title  "UsedChannel, vector"
vector 142  Lora.endDevice[29]  SentmessagesStats:vector  ETV
attr source  Sentmessages
attr title  "Sentmessages, vector"
vector 143  Lora.endDevice[29]  LostmessagesStats:vector  ETV
attr source  Lostmessages
attr title  "Lostmessages, vector"
vector 144  Lora.endDevice[30]  CH1state:vector  ETV
attr enum  IDLE=0,BUSY=1,TRANSMITTING=2
attr source  state
attr title  "Channel_1 state, vector"
vector 145  Lora.endDevice[30]  usedCh:vector  ETV
attr source  usedChannel
attr title  "UsedChannel, vector"
vector 146  Lora.endDevice[30]  SentmessagesStats:vector  ETV
attr source  Sentmessages
attr title  "Sentmessages, vector"
vector 147  Lora.endDevice[30]  LostmessagesStats:vector  ETV
attr source  Lostmessages
attr title  "Lostmessages, vector"
vector 148  Lora.endDevice[31]  CH1state:vector  ETV
attr enum  IDLE=0,BUSY=1,TRANSMITTING=2
attr source  state
attr title  "Channel_1 state, vector"
vector 149  Lora.endDevice[31]  usedCh:vector  ETV
attr source  usedChannel
attr title  "UsedChannel, vector"
vector 150  Lora.endDevice[31]  SentmessagesStats:vector  ETV
attr source  Sentmessages
attr title  "Sentmessages, vector"
vector 151  Lora.endDevice[31]  LostmessagesStats:vector  ETV
attr source  Lostmessages
attr title  "Lostmessages, vector"
vector 152  Lora.endDevice[32]  CH1state:vector  ETV
attr enum  IDLE=0,BUSY=1,TRANSMITTING=2
attr source  state
attr title  "Channel_1 state, vector"
vector 153  Lora.endDevice[32]  usedCh:vector  ETV
attr source  usedChannel
attr title  "UsedChannel, vector"
vector 154  Lora.endDevice[32]  SentmessagesStats:vector  ETV
attr source  Sentmessages
attr title  "Sentmessages, vector"
vector 155  Lora.endDevice[32]  LostmessagesStats:vector  ETV
attr source  Lostmessages
attr title  "Lostmessages, vector"
vector 156  Lora.endDevice[33]  CH1state:vector  ETV
attr enum  IDLE=0,BUSY=1,TRANSMITTING=2
attr source  state
attr title  "Channel_1 state, vector"
vector 157  Lora.endDevice[33]  usedCh:vector  ETV
attr source  usedChannel
attr title  "UsedChannel, vector"
vector 158  Lora.endDevice[33]  SentmessagesStats:vector  ETV
attr source  Sentmessages
attr title  "Sentmessages, vector"
vector 159  Lora.endDevice[33]  LostmessagesStats:vector  ETV
attr source  Lostmessages
attr title  "Lostmessages, vector"
vector 160  Lora.endDevice[34]  CH1state:vector  ETV
attr enum  IDLE=0,BUSY=1,TRANSMITTING=2
attr source  state
attr title  "Channel_1 state, vector"
vector 161  Lora.endDevice[34]  usedCh:vector  ETV
attr source  usedChannel
attr title  "UsedChannel, vector"
vector 162  Lora.endDevice[34]  SentmessagesStats:vector  ETV
attr source  Sentmessages
attr title  "Sentmessages, vector"
vector 163  Lora.endDevice[34]  LostmessagesStats:vector  ETV
attr source  Lostmessages
attr title  "Lostmessages, vector"
vector 164  Lora.endDevice[35]  CH1state:vector  ETV
attr enum  IDLE=0,BUSY=1,TRANSMITTING=2
attr source  state
attr title  "Channel_1 state, vector"
vector 165  Lora.endDevice[35]  usedCh:vector  ETV
attr source  usedChannel
attr title  "UsedChannel, vector"
vector 166  Lora.endDevice[35]  SentmessagesStats:vector  ETV
attr source  Sentmessages
attr title  "Sentmessages, vector"
vector 167  Lora.endDevice[35]  LostmessagesStats:vector  ETV
attr source  Lostmessages
attr title  "Lostmessages, vector"
vector 168  Lora.endDevice[36]  CH1state:vector  ETV
attr enum  IDLE=0,BUSY=1,TRANSMITTING=2
attr source  state
attr title  "Channel_1 state, vector"
vector 169  Lora.endDevice[36]  usedCh:vector  ETV
attr source  usedChannel
attr title  "UsedChannel, vector"
vector 170  Lora.endDevice[36]  SentmessagesStats:vector  ETV
attr source  Sentmessages
attr title  "Sentmessages, vector"
vector 171  Lora.endDevice[36]  LostmessagesStats:vector  ETV
attr source  Lostmessages
attr title  "Lostmessages, vector"
vector 172  Lora.endDevice[37]  CH1state:vector  ETV
attr enum  IDLE=0,BUSY=1,TRANSMITTING=2
attr source  state
attr title  "Channel_1 state, vector"
vector 173  Lora.endDevice[37]  usedCh:vector  ETV
attr source  usedChannel
attr title  "UsedChannel, vector"
vector 174  Lora.endDevice[37]  SentmessagesStats:vector  ETV
attr source  Sentmessages
attr title  "Sentmessages, vector"
vector 175  Lora.endDevice[37]  LostmessagesStats:vector  ETV
attr source  Lostmessages
attr title  "Lostmessages, vector"
vector 176  Lora.endDevice[38]  CH1state:vector  ETV
attr enum  IDLE=0,BUSY=1,TRANSMITTING=2
attr source  state
attr title  "Channel_1 state, vector"
vector 177  Lora.endDevice[38]  usedCh:vector  ETV
attr source  usedChannel
attr title  "UsedChannel, vector"
vector 178  Lora.endDevice[38]  SentmessagesStats:vector  ETV
attr source  Sentmessages
attr title  "Sentmessages, vector"
vector 179  Lora.endDevice[38]  LostmessagesStats:vector  ETV
attr source  Lostmessages
attr title  "Lostmessages, vector"
vector 180  Lora.endDevice[39]  CH1state:vector  ETV
attr enum  IDLE=0,BUSY=1,TRANSMITTING=2
attr source  state
attr title  "Channel_1 state, vector"
vector 181  Lora.endDevice[39]  usedCh:vector  ETV
attr source  usedChannel
attr title  "UsedChannel, vector"
vector 182  Lora.endDevice[39]  SentmessagesStats:vector  ETV
attr source  Sentmessages
attr title  "Sentmessages, vector"
vector 183  Lora.endDevice[39]  LostmessagesStats:vector  ETV
attr source  Lostmessages
attr title  "Lostmessages, vector"
vector 184  Lora.endDevice[40]  CH1state:vector  ETV
attr enum  IDLE=0,BUSY=1,TRANSMITTING=2
attr source  state
attr title  "Channel_1 state, vector"
vector 185  Lora.endDevice[40]  usedCh:vector  ETV
attr source  usedChannel
attr title  "UsedChannel, vector"
vector 186  Lora.endDevice[40]  SentmessagesStats:vector  ETV
attr source  Sentmessages
attr title  "Sentmessages, vector"
vector 187  Lora.endDevice[40]  LostmessagesStats:vector  ETV
attr source  Lostmessages
attr title  "Lostmessages, vector"
vector 188  Lora.endDevice[41]  CH1state:vector  ETV
attr enum  IDLE=0,BUSY=1,TRANSMITTING=2
attr source  state
attr title  "Channel_1 state, vector"
vector 189  Lora.endDevice[41]  usedCh:vector  ETV
attr source  usedChannel
attr title  "UsedChannel, vector"
vector 190  Lora.endDevice[41]  SentmessagesStats:vector  ETV
attr source  Sentmessages
attr title  "Sentmessages, vector"
vector 191  Lora.endDevice[41]  LostmessagesStats:vector  ETV
attr source  Lostmessages
attr title  "Lostmessages, vector"
vector 192  Lora.endDevice[42]  CH1state:vector  ETV
attr enum  IDLE=0,BUSY=1,TRANSMITTING=2
attr source  state
attr title  "Channel_1 state, vector"
vector 193  Lora.endDevice[42]  usedCh:vector  ETV
attr source  usedChannel
attr title  "UsedChannel, vector"
vector 194  Lora.endDevice[42]  SentmessagesStats:vector  ETV
attr source  Sentmessages
attr title  "Sentmessages, vector"
vector 195  Lora.endDevice[42]  LostmessagesStats:vector  ETV
attr source  Lostmessages
attr title  "Lostmessages, vector"
vector 196  Lora.endDevice[43]  CH1state:vector  ETV
attr enum  IDLE=0,BUSY=1,TRANSMITTING=2
attr source  state
attr title  "Channel_1 state, vector"
vector 197  Lora.endDevice[43]  usedCh:vector  ETV
attr source  usedChannel
attr title  "UsedChannel, vector"
vector 198  Lora.endDevice[43]  SentmessagesStats:vector  ETV
attr source  Sentmessages
attr title  "Sentmessages, vector"
vector 199  Lora.endDevice[43]  LostmessagesStats:vector  ETV
attr source  Lostmessages
attr title  "Lostmessages, vector"
vector 200  Lora.endDevice[44]  CH1state:vector  ETV
attr enum  IDLE=0,BUSY=1,TRANSMITTING=2
attr source  state
attr title  "Channel_1 state, vector"
vector 201  Lora.endDevice[44]  usedCh:vector  ETV
attr source  usedChannel
attr title  "UsedChannel, vector"
vector 202  Lora.endDevice[44]  SentmessagesStats:vector  ETV
attr source  Sentmessages
attr title  "Sentmessages, vector"
vector 203  Lora.endDevice[44]  LostmessagesStats:vector  ETV
attr source  Lostmessages
attr title  "Lostmessages, vector"
vector 204  Lora.endDevice[45]  CH1state:vector  ETV
attr enum  IDLE=0,BUSY=1,TRANSMITTING=2
attr source  state
attr title  "Channel_1 state, vector"
vector 205  Lora.endDevice[45]  usedCh:vector  ETV
attr source  usedChannel
attr title  "UsedChannel, vector"
vector 206  Lora.endDevice[45]  SentmessagesStats:vector  ETV
attr source  Sentmessages
attr title  "Sentmessages, vector"
vector 207  Lora.endDevice[45]  LostmessagesStats:vector  ETV
attr source  Lostmessages
attr title  "Lostmessages, vector"
vector 208  Lora.endDevice[46]  CH1state:vector  ETV
attr enum  IDLE=0,BUSY=1,TRANSMITTING=2
attr source  state
attr title  "Channel_1 state, vector"
vector 209  Lora.endDevice[46]  usedCh:vector  ETV
attr source  usedChannel
attr title  "UsedChannel, vector"
vector 210  Lora.endDevice[46]  SentmessagesStats:vector  ETV
attr source  Sentmessages
attr title  "Sentmessages, vector"
vector 211  Lora.endDevice[46]  LostmessagesStats:vector  ETV
attr source  Lostmessages
attr title  "Lostmessages, vector"
vector 212  Lora.endDevice[47]  CH1state:vector  ETV
attr enum  IDLE=0,BUSY=1,TRANSMITTING=2
attr source  state
attr title  "Channel_1 state, vector"
vector 213  Lora.endDevice[47]  usedCh:vector  ETV
attr source  usedChannel
attr title  "UsedChannel, vector"
vector 214  Lora.endDevice[47]  SentmessagesStats:vector  ETV
attr source  Sentmessages
attr title  "Sentmessages, vector"
vector 215  Lora.endDevice[47]  LostmessagesStats:vector  ETV
attr source  Lostmessages
attr title  "Lostmessages, vector"
vector 216  Lora.endDevice[48]  CH1state:vector  ETV
attr enum  IDLE=0,BUSY=1,TRANSMITTING=2
attr source  state
attr title  "Channel_1 state, vector"
vector 217  Lora.endDevice[48]  usedCh:vector  ETV
attr source  usedChannel
attr title  "UsedChannel, vector"
vector 218  Lora.endDevice[48]  SentmessagesStats:vector  ETV
attr source  Sentmessages
attr title  "Sentmessages, vector"
vector 219  Lora.endDevice[48]  LostmessagesStats:vector  ETV
attr source  Lostmessages
attr title  "Lostmessages, vector"
vector 220  Lora.endDevice[49]  CH1state:vector  ETV
attr enum  IDLE=0,BUSY=1,TRANSMITTING=2
attr source  state
attr title  "Channel_1 state, vector"
vector 221  Lora.endDevice[49]  usedCh:vector  ETV
attr source  usedChannel
attr title  "UsedChannel, vector"
vector 222  Lora.endDevice[49]  SentmessagesStats:vector  ETV
attr source  Sentmessages
attr title  "Sentmessages, vector"
vector 223  Lora.endDevice[49]  LostmessagesStats:vector  ETV
attr source  Lostmessages
attr title  "Lostmessages, vector"
vector 224  Lora.endDevice[50]  CH1state:vector  ETV
attr enum  IDLE=0,BUSY=1,TRANSMITTING=2
attr source  state
attr title  "Channel_1 state, vector"
vector 225  Lora.endDevice[50]  usedCh:vector  ETV
attr source  usedChannel
attr title  "UsedChannel, vector"
vector 226  Lora.endDevice[50]  SentmessagesStats:vector  ETV
attr source  Sentmessages
attr title  "Sentmessages, vector"
vector 227  Lora.endDevice[50]  LostmessagesStats:vector  ETV
attr source  Lostmessages
attr title  "Lostmessages, vector"
vector 228  Lora.endDevice[51]  CH1state:vector  ETV
attr enum  IDLE=0,BUSY=1,TRANSMITTING=2
attr source  state
attr title  "Channel_1 state, vector"
vector 229  Lora.endDevice[51]  usedCh:vector  ETV
attr source  usedChannel
attr title  "UsedChannel, vector"
vector 230  Lora.endDevice[51]  SentmessagesStats:vector  ETV
attr source  Sentmessages
attr title  "Sentmessages, vector"
vector 231  Lora.endDevice[51]  LostmessagesStats:vector  ETV
attr source  Lostmessages
attr title  "Lostmessages, vector"
vector 232  Lora.endDevice[52]  CH1state:vector  ETV
attr enum  IDLE=0,BUSY=1,TRANSMITTING=2
attr source  state
attr title  "Channel_1 state, vector"
vector 233  Lora.endDevice[52]  usedCh:vector  ETV
attr source  usedChannel
attr title  "UsedChannel, vector"
vector 234  Lora.endDevice[52]  SentmessagesStats:vector  ETV
attr source  Sentmessages
attr title  "Sentmessages, vector"
vector 235  Lora.endDevice[52]  LostmessagesStats:vector  ETV
attr source  Lostmessages
attr title  "Lostmessages, vector"
vector 236  Lora.endDevice[53]  CH1state:vector  ETV
attr enum  IDLE=0,BUSY=1,TRANSMITTING=2
attr source  state
attr title  "Channel_1 state, vector"
vector 237  Lora.endDevice[53]  usedCh:vector  ETV
attr source  usedChannel
attr title  "UsedChannel, vector"
vector 238  Lora.endDevice[53]  SentmessagesStats:vector  ETV
attr source  Sentmessages
attr title  "Sentmessages, vector"
vector 239  Lora.endDevice[53]  LostmessagesStats:vector  ETV
attr source  Lostmessages
attr title  "Lostmessages, vector"
vector 240  Lora.endDevice[54]  CH1state:vector  ETV
attr enum  IDLE=0,BUSY=1,TRANSMITTING=2
attr source  state
attr title  "Channel_1 state, vector"
vector 241  Lora.endDevice[54]  usedCh:vector  ETV
attr source  usedChannel
attr title  "UsedChannel, vector"
vector 242  Lora.endDevice[54]  SentmessagesStats:vector  ETV
attr source  Sentmessages
attr title  "Sentmessages, vector"
vector 243  Lora.endDevice[54]  LostmessagesStats:vector  ETV
attr source  Lostmessages
attr title  "Lostmessages, vector"
vector 244  Lora.endDevice[55]  CH1state:vector  ETV
attr enum  IDLE=0,BUSY=1,TRANSMITTING=2
attr source  state
attr title  "Channel_1 state, vector"
vector 245  Lora.endDevice[55]  usedCh:vector  ETV
attr source  usedChannel
attr title  "UsedChannel, vector"
vector 246  Lora.endDevice[55]  SentmessagesStats:vector  ETV
attr source  Sentmessages
attr title  "Sentmessages, vector"
vector 247  Lora.endDevice[55]  LostmessagesStats:vector  ETV
attr source  Lostmessages
attr title  "Lostmessages, vector"
vector 248  Lora.endDevice[56]  CH1state:vector  ETV
attr enum  IDLE=0,BUSY=1,TRANSMITTING=2
attr source  state
attr title  "Channel_1 state, vector"
vector 249  Lora.endDevice[56]  usedCh:vector  ETV
attr source  usedChannel
attr title  "UsedChannel, vector"
vector 250  Lora.endDevice[56]  SentmessagesStats:vector  ETV
attr source  Sentmessages
attr title  "Sentmessages, vector"
vector 251  Lora.endDevice[56]  LostmessagesStats:vector  ETV
attr source  Lostmessages
attr title  "Lostmessages, vector"
vector 252  Lora.endDevice[57]  CH1state:vector  ETV
attr enum  IDLE=0,BUSY=1,TRANSMITTING=2
attr source  state
attr title  "Channel_1 state, vector"
vector 253  Lora.endDevice[57]  usedCh:vector  ETV
attr source  usedChannel
attr title  "UsedChannel, vector"
vector 254  Lora.endDevice[57]  SentmessagesStats:vector  ETV
attr source  Sentmessages
attr title  "Sentmessages, vector"
vector 255  Lora.endDevice[57]  LostmessagesStats:vector  ETV
attr source  Lostmessages
attr title  "Lostmessages, vector"
vector 256  Lora.endDevice[58]  CH1state:vector  ETV
attr enum  IDLE=0,BUSY=1,TRANSMITTING=2
attr source  state
attr title  "Channel_1 state, vector"
vector 257  Lora.endDevice[58]  usedCh:vector  ETV
attr source  usedChannel
attr title  "UsedChannel, vector"
vector 258  Lora.endDevice[58]  SentmessagesStats:vector  ETV
attr source  Sentmessages
attr title  "Sentmessages, vector"
vector 259  Lora.endDevice[58]  LostmessagesStats:vector  ETV
attr source  Lostmessages
attr title  "Lostmessages, vector"
vector 260  Lora.endDevice[59]  CH1state:vector  ETV
attr enum  IDLE=0,BUSY=1,TRANSMITTING=2
attr source  state
attr title  "Channel_1 state, vector"
vector 261  Lora.endDevice[59]  usedCh:vector  ETV
attr source  usedChannel
attr title  "UsedChannel, vector"
vector 262  Lora.endDevice[59]  SentmessagesStats:vector  ETV
attr source  Sentmessages
attr title  "Sentmessages, vector"
vector 263  Lora.endDevice[59]  LostmessagesStats:vector  ETV
attr source  Lostmessages
attr title  "Lostmessages, vector"
vector 264  Lora.endDevice[60]  CH1state:vector  ETV
attr enum  IDLE=0,BUSY=1,TRANSMITTING=2
attr source  state
attr title  "Channel_1 state, vector"
vector 265  Lora.endDevice[60]  usedCh:vector  ETV
attr source  usedChannel
attr title  "UsedChannel, vector"
vector 266  Lora.endDevice[60]  SentmessagesStats:vector  ETV
attr source  Sentmessages
attr title  "Sentmessages, vector"
vector 267  Lora.endDevice[60]  LostmessagesStats:vector  ETV
attr source  Lostmessages
attr title  "Lostmessages, vector"
vector 268  Lora.endDevice[61]  CH1state:vector  ETV
attr enum  IDLE=0,BUSY=1,TRANSMITTING=2
attr source  state
attr title  "Channel_1 state, vector"
vector 269  Lora.endDevice[61]  usedCh:vector  ETV
attr source  usedChannel
attr title  "UsedChannel, vector"
vector 270  Lora.endDevice[61]  SentmessagesStats:vector  ETV
attr source  Sentmessages
attr title  "Sentmessages, vector"
vector 271  Lora.endDevice[61]  LostmessagesStats:vector  ETV
attr source  Lostmessages
attr title  "Lostmessages, vector"
vector 272  Lora.endDevice[62]  CH1state:vector  ETV
attr enum  IDLE=0,BUSY=1,TRANSMITTING=2
attr source  state
attr title  "Channel_1 state, vector"
vector 273  Lora.endDevice[62]  usedCh:vector  ETV
attr source  usedChannel
attr title  "UsedChannel, vector"
vector 274  Lora.endDevice[62]  SentmessagesStats:vector  ETV
attr source  Sentmessages
attr title  "Sentmessages, vector"
vector 275  Lora.endDevice[62]  LostmessagesStats:vector  ETV
attr source  Lostmessages
attr title  "Lostmessages, vector"
vector 276  Lora.endDevice[63]  CH1state:vector  ETV
attr enum  IDLE=0,BUSY=1,TRANSMITTING=2
attr source  state
attr title  "Channel_1 state, vector"
vector 277  Lora.endDevice[63]  usedCh:vector  ETV
attr source  usedChannel
attr title  "UsedChannel, vector"
vector 278  Lora.endDevice[63]  SentmessagesStats:vector  ETV
attr source  Sentmessages
attr title  "Sentmessages, vector"
vector 279  Lora.endDevice[63]  LostmessagesStats:vector  ETV
attr source  Lostmessages
attr title  "Lostmessages, vector"
vector 280  Lora.endDevice[64]  CH1state:vector  ETV
attr enum  IDLE=0,BUSY=1,TRANSMITTING=2
attr source  state
attr title  "Channel_1 state, vector"
vector 281  Lora.endDevice[64]  usedCh:vector  ETV
attr source  usedChannel
attr title  "UsedChannel, vector"
vector 282  Lora.endDevice[64]  SentmessagesStats:vector  ETV
attr source  Sentmessages
attr title  "Sentmessages, vector"
vector 283  Lora.endDevice[64]  LostmessagesStats:vector  ETV
attr source  Lostmessages
attr title  "Lostmessages, vector"
vector 284  Lora.endDevice[65]  CH1state:vector  ETV
attr enum  IDLE=0,BUSY=1,TRANSMITTING=2
attr source  state
attr title  "Channel_1 state, vector"
vector 285  Lora.endDevice[65]  usedCh:vector  ETV
attr source  usedChannel
attr title  "UsedChannel, vector"
vector 286  Lora.endDevice[65]  SentmessagesStats:vector  ETV
attr source  Sentmessages
attr title  "Sentmessages, vector"
vector 287  Lora.endDevice[65]  LostmessagesStats:vector  ETV
attr source  Lostmessages
attr title  "Lostmessages, vector"
vector 288  Lora.endDevice[66]  CH1state:vector  ETV
attr enum  IDLE=0,BUSY=1,TRANSMITTING=2
attr source  state
attr title  "Channel_1 state, vector"
vector 289  Lora.endDevice[66]  usedCh:vector  ETV
attr source  usedChannel
attr title  "UsedChannel, vector"
vector 290  Lora.endDevice[66]  SentmessagesStats:vector  ETV
attr source  Sentmessages
attr title  "Sentmessages, vector"
vector 291  Lora.endDevice[66]  LostmessagesStats:vector  ETV
attr source  Lostmessages
attr title  "Lostmessages, vector"
vector 292  Lora.endDevice[67]  CH1state:vector  ETV
attr enum  IDLE=0,BUSY=1,TRANSMITTING=2
attr source  state
attr title  "Channel_1 state, vector"
vector 293  Lora.endDevice[67]  usedCh:vector  ETV
attr source  usedChannel
attr title  "UsedChannel, vector"
vector 294  Lora.endDevice[67]  SentmessagesStats:vector  ETV
attr source  Sentmessages
attr title  "Sentmessages, vector"
vector 295  Lora.endDevice[67]  LostmessagesStats:vector  ETV
attr source  Lostmessages
attr title  "Lostmessages, vector"
vector 296  Lora.endDevice[68]  CH1state:vector  ETV
attr enum  IDLE=0,BUSY=1,TRANSMITTING=2
attr source  state
attr title  "Channel_1 state, vector"
vector 297  Lora.endDevice[68]  usedCh:vector  ETV
attr source  usedChannel
attr title  "UsedChannel, vector"
vector 298  Lora.endDevice[68]  SentmessagesStats:vector  ETV
attr source  Sentmessages
attr title  "Sentmessages, vector"
vector 299  Lora.endDevice[68]  LostmessagesStats:vector  ETV
attr source  Lostmessages
attr title  "Lostmessages, vector"
vector 300  Lora.endDevice[69]  CH1state:vector  ETV
attr enum  IDLE=0,BUSY=1,TRANSMITTING=2
attr source  state
attr title  "Channel_1 state, vector"
vector 301  Lora.endDevice[69]  usedCh:vector  ETV
attr source  usedChannel
attr title  "UsedChannel, vector"
vector 302  Lora.endDevice[69]  SentmessagesStats:vector  ETV
attr source  Sentmessages
attr title  "Sentmessages, vector"
vector 303  Lora.endDevice[69]  LostmessagesStats:vector  ETV
attr source  Lostmessages
attr title  "Lostmessages, vector"
vector 304  Lora.endDevice[70]  CH1state:vector  ETV
attr enum  IDLE=0,BUSY=1,TRANSMITTING=2
attr source  state
attr title  "Channel_1 state, vector"
vector 305  Lora.endDevice[70]  usedCh:vector  ETV
attr source  usedChannel
attr title  "UsedChannel, vector"
vector 306  Lora.endDevice[70]  SentmessagesStats:vector  ETV
attr source  Sentmessages
attr title  "Sentmessages, vector"
vector 307  Lora.endDevice[70]  LostmessagesStats:vector  ETV
attr source  Lostmessages
attr title  "Lostmessages, vector"
vector 308  Lora.endDevice[71]  CH1state:vector  ETV
attr enum  IDLE=0,BUSY=1,TRANSMITTING=2
attr source  state
attr title  "Channel_1 state, vector"
vector 309  Lora.endDevice[71]  usedCh:vector  ETV
attr source  usedChannel
attr title  "UsedChannel, vector"
vector 310  Lora.endDevice[71]  SentmessagesStats:vector  ETV
attr source  Sentmessages
attr title  "Sentmessages, vector"
vector 311  Lora.endDevice[71]  LostmessagesStats:vector  ETV
attr source  Lostmessages
attr title  "Lostmessages, vector"
vector 312  Lora.endDevice[72]  CH1state:vector  ETV
attr enum  IDLE=0,BUSY=1,TRANSMITTING=2
attr source  state
attr title  "Channel_1 state, vector"
vector 313  Lora.endDevice[72]  usedCh:vector  ETV
attr source  usedChannel
attr title  "UsedChannel, vector"
vector 314  Lora.endDevice[72]  SentmessagesStats:vector  ETV
attr source  Sentmessages
attr title  "Sentmessages, vector"
vector 315  Lora.endDevice[72]  LostmessagesStats:vector  ETV
attr source  Lostmessages
attr title  "Lostmessages, vector"
vector 316  Lora.endDevice[73]  CH1state:vector  ETV
attr enum  IDLE=0,BUSY=1,TRANSMITTING=2
attr source  state
attr title  "Channel_1 state, vector"
vector 317  Lora.endDevice[73]  usedCh:vector  ETV
attr source  usedChannel
attr title  "UsedChannel, vector"
vector 318  Lora.endDevice[73]  SentmessagesStats:vector  ETV
attr source  Sentmessages
attr title  "Sentmessages, vector"
vector 319  Lora.endDevice[73]  LostmessagesStats:vector  ETV
attr source  Lostmessages
attr title  "Lostmessages, vector"
vector 320  Lora.endDevice[74]  CH1state:vector  ETV
attr enum  IDLE=0,BUSY=1,TRANSMITTING=2
attr source  state
attr title  "Channel_1 state, vector"
vector 321  Lora.endDevice[74]  usedCh:vector  ETV
attr source  usedChannel
attr title  "UsedChannel, vector"
vector 322  Lora.endDevice[74]  SentmessagesStats:vector  ETV
attr source  Sentmessages
attr title  "Sentmessages, vector"
vector 323  Lora.endDevice[74]  LostmessagesStats:vector  ETV
attr source  Lostmessages
attr title  "Lostmessages, vector"
vector 324  Lora.endDevice[75]  CH1state:vector  ETV
attr enum  IDLE=0,BUSY=1,TRANSMITTING=2
attr source  state
attr title  "Channel_1 state, vector"
vector 325  Lora.endDevice[75]  usedCh:vector  ETV
attr source  usedChannel
attr title  "UsedChannel, vector"
vector 326  Lora.endDevice[75]  SentmessagesStats:vector  ETV
attr source  Sentmessages
attr title  "Sentmessages, vector"
vector 327  Lora.endDevice[75]  LostmessagesStats:vector  ETV
attr source  Lostmessages
attr title  "Lostmessages, vector"
vector 328  Lora.endDevice[76]  CH1state:vector  ETV
attr enum  IDLE=0,BUSY=1,TRANSMITTING=2
attr source  state
attr title  "Channel_1 state, vector"
vector 329  Lora.endDevice[76]  usedCh:vector  ETV
attr source  usedChannel
attr title  "UsedChannel, vector"
vector 330  Lora.endDevice[76]  SentmessagesStats:vector  ETV
attr source  Sentmessages
attr title  "Sentmessages, vector"
vector 331  Lora.endDevice[76]  LostmessagesStats:vector  ETV
attr source  Lostmessages
attr title  "Lostmessages, vector"
vector 332  Lora.endDevice[77]  CH1state:vector  ETV
attr enum  IDLE=0,BUSY=1,TRANSMITTING=2
attr source  state
attr title  "Channel_1 state, vector"
vector 333  Lora.endDevice[77]  usedCh:vector  ETV
attr source  usedChannel
attr title  "UsedChannel, vector"
vector 334  Lora.endDevice[77]  SentmessagesStats:vector  ETV
attr source  Sentmessages
attr title  "Sentmessages, vector"
vector 335  Lora.endDevice[77]  LostmessagesStats:vector  ETV
attr source  Lostmessages
attr title  "Lostmessages, vector"
vector 336  Lora.endDevice[78]  CH1state:vector  ETV
attr enum  IDLE=0,BUSY=1,TRANSMITTING=2
attr source  state
attr title  "Channel_1 state, vector"
vector 337  Lora.endDevice[78]  usedCh:vector  ETV
attr source  usedChannel
attr title  "UsedChannel, vector"
vector 338  Lora.endDevice[78]  SentmessagesStats:vector  ETV
attr source  Sentmessages
attr title  "Sentmessages, vector"
vector 339  Lora.endDevice[78]  LostmessagesStats:vector  ETV
attr source  Lostmessages
attr title  "Lostmessages, vector"
vector 340  Lora.endDevice[79]  CH1state:vector  ETV
attr enum  IDLE=0,BUSY=1,TRANSMITTING=2
attr source  state
attr title  "Channel_1 state, vector"
vector 341  Lora.endDevice[79]  usedCh:vector  ETV
attr source  usedChannel
attr title  "UsedChannel, vector"
vector 342  Lora.endDevice[79]  SentmessagesStats:vector  ETV
attr source  Sentmessages
attr title  "Sentmessages, vector"
vector 343  Lora.endDevice[79]  LostmessagesStats:vector  ETV
attr source  Lostmessages
attr title  "Lostmessages, vector"
vector 344  Lora.endDevice[80]  CH1state:vector  ETV
attr enum  IDLE=0,BUSY=1,TRANSMITTING=2
attr source  state
attr title  "Channel_1 state, vector"
vector 345  Lora.endDevice[80]  usedCh:vector  ETV
attr source  usedChannel
attr title  "UsedChannel, vector"
vector 346  Lora.endDevice[80]  SentmessagesStats:vector  ETV
attr source  Sentmessages
attr title  "Sentmessages, vector"
vector 347  Lora.endDevice[80]  LostmessagesStats:vector  ETV
attr source  Lostmessages
attr title  "Lostmessages, vector"
vector 348  Lora.endDevice[81]  CH1state:vector  ETV
attr enum  IDLE=0,BUSY=1,TRANSMITTING=2
attr source  state
attr title  "Channel_1 state, vector"
vector 349  Lora.endDevice[81]  usedCh:vector  ETV
attr source  usedChannel
attr title  "UsedChannel, vector"
vector 350  Lora.endDevice[81]  SentmessagesStats:vector  ETV
attr source  Sentmessages
attr title  "Sentmessages, vector"
vector 351  Lora.endDevice[81]  LostmessagesStats:vector  ETV
attr source  Lostmessages
attr title  "Lostmessages, vector"
vector 352  Lora.endDevice[82]  CH1state:vector  ETV
attr enum  IDLE=0,BUSY=1,TRANSMITTING=2
attr source  state
attr title  "Channel_1 state, vector"
vector 353  Lora.endDevice[82]  usedCh:vector  ETV
attr source  usedChannel
attr title  "UsedChannel, vector"
vector 354  Lora.endDevice[82]  SentmessagesStats:vector  ETV
attr source  Sentmessages
attr title  "Sentmessages, vector"
vector 355  Lora.endDevice[82]  LostmessagesStats:vector  ETV
attr source  Lostmessages
attr title  "Lostmessages, vector"
vector 356  Lora.endDevice[83]  CH1state:vector  ETV
attr enum  IDLE=0,BUSY=1,TRANSMITTING=2
attr source  state
attr title  "Channel_1 state, vector"
vector 357  Lora.endDevice[83]  usedCh:vector  ETV
attr source  usedChannel
attr title  "UsedChannel, vector"
vector 358  Lora.endDevice[83]  SentmessagesStats:vector  ETV
attr source  Sentmessages
attr title  "Sentmessages, vector"
vector 359  Lora.endDevice[83]  LostmessagesStats:vector  ETV
attr source  Lostmessages
attr title  "Lostmessages, vector"
vector 360  Lora.endDevice[84]  CH1state:vector  ETV
attr enum  IDLE=0,BUSY=1,TRANSMITTING=2
attr source  state
attr title  "Channel_1 state, vector"
vector 361  Lora.endDevice[84]  usedCh:vector  ETV
attr source  usedChannel
attr title  "UsedChannel, vector"
vector 362  Lora.endDevice[84]  SentmessagesStats:vector  ETV
attr source  Sentmessages
attr title  "Sentmessages, vector"
vector 363  Lora.endDevice[84]  LostmessagesStats:vector  ETV
attr source  Lostmessages
attr title  "Lostmessages, vector"
vector 364  Lora.endDevice[85]  CH1state:vector  ETV
attr enum  IDLE=0,BUSY=1,TRANSMITTING=2
attr source  state
attr title  "Channel_1 state, vector"
vector 365  Lora.endDevice[85]  usedCh:vector  ETV
attr source  usedChannel
attr title  "UsedChannel, vector"
vector 366  Lora.endDevice[85]  SentmessagesStats:vector  ETV
attr source  Sentmessages
attr title  "Sentmessages, vector"
vector 367  Lora.endDevice[85]  LostmessagesStats:vector  ETV
attr source  Lostmessages
attr title  "Lostmessages, vector"
vector 368  Lora.endDevice[86]  CH1state:vector  ETV
attr enum  IDLE=0,BUSY=1,TRANSMITTING=2
attr source  state
attr title  "Channel_1 state, vector"
vector 369  Lora.endDevice[86]  usedCh:vector  ETV
attr source  usedChannel
attr title  "UsedChannel, vector"
vector 370  Lora.endDevice[86]  SentmessagesStats:vector  ETV
attr source  Sentmessages
attr title  "Sentmessages, vector"
vector 371  Lora.endDevice[86]  LostmessagesStats:vector  ETV
attr source  Lostmessages
attr title  "Lostmessages, vector"
vector 372  Lora.endDevice[87]  CH1state:vector  ETV
attr enum  IDLE=0,BUSY=1,TRANSMITTING=2
attr source  state
attr title  "Channel_1 state, vector"
vector 373  Lora.endDevice[87]  usedCh:vector  ETV
attr source  usedChannel
attr title  "UsedChannel, vector"
vector 374  Lora.endDevice[87]  SentmessagesStats:vector  ETV
attr source  Sentmessages
attr title  "Sentmessages, vector"
vector 375  Lora.endDevice[87]  LostmessagesStats:vector  ETV
attr source  Lostmessages
attr title  "Lostmessages, vector"
vector 376  Lora.endDevice[88]  CH1state:vector  ETV
attr enum  IDLE=0,BUSY=1,TRANSMITTING=2
attr source  state
attr title  "Channel_1 state, vector"
vector 377  Lora.endDevice[88]  usedCh:vector  ETV
attr source  usedChannel
attr title  "UsedChannel, vector"
vector 378  Lora.endDevice[88]  SentmessagesStats:vector  ETV
attr source  Sentmessages
attr title  "Sentmessages, vector"
vector 379  Lora.endDevice[88]  LostmessagesStats:vector  ETV
attr source  Lostmessages
attr title  "Lostmessages, vector"
vector 380  Lora.endDevice[89]  CH1state:vector  ETV
attr enum  IDLE=0,BUSY=1,TRANSMITTING=2
attr source  state
attr title  "Channel_1 state, vector"
vector 381  Lora.endDevice[89]  usedCh:vector  ETV
attr source  usedChannel
attr title  "UsedChannel, vector"
vector 382  Lora.endDevice[89]  SentmessagesStats:vector  ETV
attr source  Sentmessages
attr title  "Sentmessages, vector"
vector 383  Lora.endDevice[89]  LostmessagesStats:vector  ETV
attr source  Lostmessages
attr title  "Lostmessages, vector"
vector 384  Lora.endDevice[90]  CH1state:vector  ETV
attr enum  IDLE=0,BUSY=1,TRANSMITTING=2
attr source  state
attr title  "Channel_1 state, vector"
vector 385  Lora.endDevice[90]  usedCh:vector  ETV
attr source  usedChannel
attr title  "UsedChannel, vector"
vector 386  Lora.endDevice[90]  SentmessagesStats:vector  ETV
attr source  Sentmessages
attr title  "Sentmessages, vector"
vector 387  Lora.endDevice[90]  LostmessagesStats:vector  ETV
attr source  Lostmessages
attr title  "Lostmessages, vector"
vector 388  Lora.endDevice[91]  CH1state:vector  ETV
attr enum  IDLE=0,BUSY=1,TRANSMITTING=2
attr source  state
attr title  "Channel_1 state, vector"
vector 389  Lora.endDevice[91]  usedCh:vector  ETV
attr source  usedChannel
attr title  "UsedChannel, vector"
vector 390  Lora.endDevice[91]  SentmessagesStats:vector  ETV
attr source  Sentmessages
attr title  "Sentmessages, vector"
vector 391  Lora.endDevice[91]  LostmessagesStats:vector  ETV
attr source  Lostmessages
attr title  "Lostmessages, vector"
vector 392  Lora.endDevice[92]  CH1state:vector  ETV
attr enum  IDLE=0,BUSY=1,TRANSMITTING=2
attr source  state
attr title  "Channel_1 state, vector"
vector 393  Lora.endDevice[92]  usedCh:vector  ETV
attr source  usedChannel
attr title  "UsedChannel, vector"
vector 394  Lora.endDevice[92]  SentmessagesStats:vector  ETV
attr source  Sentmessages
attr title  "Sentmessages, vector"
vector 395  Lora.endDevice[92]  LostmessagesStats:vector  ETV
attr source  Lostmessages
attr title  "Lostmessages, vector"
vector 396  Lora.endDevice[93]  CH1state:vector  ETV
attr enum  IDLE=0,BUSY=1,TRANSMITTING=2
attr source  state
attr title  "Channel_1 state, vector"
vector 397  Lora.endDevice[93]  usedCh:vector  ETV
attr source  usedChannel
attr title  "UsedChannel, vector"
vector 398  Lora.endDevice[93]  SentmessagesStats:vector  ETV
attr source  Sentmessages
attr title  "Sentmessages, vector"
vector 399  Lora.endDevice[93]  LostmessagesStats:vector  ETV
attr source  Lostmessages
attr title  "Lostmessages, vector"
vector 400  Lora.endDevice[94]  CH1state:vector  ETV
attr enum  IDLE=0,BUSY=1,TRANSMITTING=2
attr source  state
attr title  "Channel_1 state, vector"
vector 401  Lora.endDevice[94]  usedCh:vector  ETV
attr source  usedChannel
attr title  "UsedChannel, vector"
vector 402  Lora.endDevice[94]  SentmessagesStats:vector  ETV
attr source  Sentmessages
attr title  "Sentmessages, vector"
vector 403  Lora.endDevice[94]  LostmessagesStats:vector  ETV
attr source  Lostmessages
attr title  "Lostmessages, vector"
vector 404  Lora.endDevice[95]  CH1state:vector  ETV
attr enum  IDLE=0,BUSY=1,TRANSMITTING=2
attr source  state
attr title  "Channel_1 state, vector"
vector 405  Lora.endDevice[95]  usedCh:vector  ETV
attr source  usedChannel
attr title  "UsedChannel, vector"
vector 406  Lora.endDevice[95]  SentmessagesStats:vector  ETV
attr source  Sentmessages
attr title  "Sentmessages, vector"
vector 407  Lora.endDevice[95]  LostmessagesStats:vector  ETV
attr source  Lostmessages
attr title  "Lostmessages, vector"
vector 408  Lora.endDevice[96]  CH1state:vector  ETV
attr enum  IDLE=0,BUSY=1,TRANSMITTING=2
attr source  state
attr title  "Channel_1 state, vector"
vector 409  Lora.endDevice[96]  usedCh:vector  ETV
attr source  usedChannel
attr title  "UsedChannel, vector"
vector 410  Lora.endDevice[96]  SentmessagesStats:vector  ETV
attr source  Sentmessages
attr title  "Sentmessages, vector"
vector 411  Lora.endDevice[96]  LostmessagesStats:vector  ETV
attr source  Lostmessages
attr title  "Lostmessages, vector"
vector 412  Lora.endDevice[97]  CH1state:vector  ETV
attr enum  IDLE=0,BUSY=1,TRANSMITTING=2
attr source  state
attr title  "Channel_1 state, vector"
vector 413  Lora.endDevice[97]  usedCh:vector  ETV
attr source  usedChannel
attr title  "UsedChannel, vector"
vector 414  Lora.endDevice[97]  SentmessagesStats:vector  ETV
attr source  Sentmessages
attr title  "Sentmessages, vector"
vector 415  Lora.endDevice[97]  LostmessagesStats:vector  ETV
attr source  Lostmessages
attr title  "Lostmessages, vector"
vector 416  Lora.endDevice[98]  CH1state:vector  ETV
attr enum  IDLE=0,BUSY=1,TRANSMITTING=2
attr source  state
attr title  "Channel_1 state, vector"
vector 417  Lora.endDevice[98]  usedCh:vector  ETV
attr source  usedChannel
attr title  "UsedChannel, vector"
vector 418  Lora.endDevice[98]  SentmessagesStats:vector  ETV
attr source  Sentmessages
attr title  "Sentmessages, vector"
vector 419  Lora.endDevice[98]  LostmessagesStats:vector  ETV
attr source  Lostmessages
attr title  "Lostmessages, vector"
vector 420  Lora.endDevice[99]  CH1state:vector  ETV
attr enum  IDLE=0,BUSY=1,TRANSMITTING=2
attr source  state
attr title  "Channel_1 state, vector"
vector 421  Lora.endDevice[99]  usedCh:vector  ETV
attr source  usedChannel
attr title  "UsedChannel, vector"
vector 422  Lora.endDevice[99]  SentmessagesStats:vector  ETV
attr source  Sentmessages
attr title  "Sentmessages, vector"
vector 423  Lora.endDevice[99]  LostmessagesStats:vector  ETV
attr source  Lostmessages
attr title  "Lostmessages, vector"
vector 424  Lora.endDevice[100]  CH1state:vector  ETV
attr enum  IDLE=0,BUSY=1,TRANSMITTING=2
attr source  state
attr title  "Channel_1 state, vector"
vector 425  Lora.endDevice[100]  usedCh:vector  ETV
attr source  usedChannel
attr title  "UsedChannel, vector"
vector 426  Lora.endDevice[100]  SentmessagesStats:vector  ETV
attr source  Sentmessages
attr title  "Sentmessages, vector"
vector 427  Lora.endDevice[100]  LostmessagesStats:vector  ETV
attr source  Lostmessages
attr title  "Lostmessages, vector"
vector 428  Lora.endDevice[101]  CH1state:vector  ETV
attr enum  IDLE=0,BUSY=1,TRANSMITTING=2
attr source  state
attr title  "Channel_1 state, vector"
vector 429  Lora.endDevice[101]  usedCh:vector  ETV
attr source  usedChannel
attr title  "UsedChannel, vector"
vector 430  Lora.endDevice[101]  SentmessagesStats:vector  ETV
attr source  Sentmessages
attr title  "Sentmessages, vector"
vector 431  Lora.endDevice[101]  LostmessagesStats:vector  ETV
attr source  Lostmessages
attr title  "Lostmessages, vector"
vector 432  Lora.endDevice[102]  CH1state:vector  ETV
attr enum  IDLE=0,BUSY=1,TRANSMITTING=2
attr source  state
attr title  "Channel_1 state, vector"
vector 433  Lora.endDevice[102]  usedCh:vector  ETV
attr source  usedChannel
attr title  "UsedChannel, vector"
vector 434  Lora.endDevice[102]  SentmessagesStats:vector  ETV
attr source  Sentmessages
attr title  "Sentmessages, vector"
vector 435  Lora.endDevice[102]  LostmessagesStats:vector  ETV
attr source  Lostmessages
attr title  "Lostmessages, vector"
vector 436  Lora.endDevice[103]  CH1state:vector  ETV
attr enum  IDLE=0,BUSY=1,TRANSMITTING=2
attr source  state
attr title  "Channel_1 state, vector"
vector 437  Lora.endDevice[103]  usedCh:vector  ETV
attr source  usedChannel
attr title  "UsedChannel, vector"
vector 438  Lora.endDevice[103]  SentmessagesStats:vector  ETV
attr source  Sentmessages
attr title  "Sentmessages, vector"
vector 439  Lora.endDevice[103]  LostmessagesStats:vector  ETV
attr source  Lostmessages
attr title  "Lostmessages, vector"
vector 440  Lora.endDevice[104]  CH1state:vector  ETV
attr enum  IDLE=0,BUSY=1,TRANSMITTING=2
attr source  state
attr title  "Channel_1 state, vector"
vector 441  Lora.endDevice[104]  usedCh:vector  ETV
attr source  usedChannel
attr title  "UsedChannel, vector"
vector 442  Lora.endDevice[104]  SentmessagesStats:vector  ETV
attr source  Sentmessages
attr title  "Sentmessages, vector"
vector 443  Lora.endDevice[104]  LostmessagesStats:vector  ETV
attr source  Lostmessages
attr title  "Lostmessages, vector"
vector 444  Lora.endDevice[105]  CH1state:vector  ETV
attr enum  IDLE=0,BUSY=1,TRANSMITTING=2
attr source  state
attr title  "Channel_1 state, vector"
vector 445  Lora.endDevice[105]  usedCh:vector  ETV
attr source  usedChannel
attr title  "UsedChannel, vector"
vector 446  Lora.endDevice[105]  SentmessagesStats:vector  ETV
attr source  Sentmessages
attr title  "Sentmessages, vector"
vector 447  Lora.endDevice[105]  LostmessagesStats:vector  ETV
attr source  Lostmessages
attr title  "Lostmessages, vector"
vector 448  Lora.endDevice[106]  CH1state:vector  ETV
attr enum  IDLE=0,BUSY=1,TRANSMITTING=2
attr source  state
attr title  "Channel_1 state, vector"
vector 449  Lora.endDevice[106]  usedCh:vector  ETV
attr source  usedChannel
attr title  "UsedChannel, vector"
vector 450  Lora.endDevice[106]  SentmessagesStats:vector  ETV
attr source  Sentmessages
attr title  "Sentmessages, vector"
vector 451  Lora.endDevice[106]  LostmessagesStats:vector  ETV
attr source  Lostmessages
attr title  "Lostmessages, vector"
vector 452  Lora.endDevice[107]  CH1state:vector  ETV
attr enum  IDLE=0,BUSY=1,TRANSMITTING=2
attr source  state
attr title  "Channel_1 state, vector"
vector 453  Lora.endDevice[107]  usedCh:vector  ETV
attr source  usedChannel
attr title  "UsedChannel, vector"
vector 454  Lora.endDevice[107]  SentmessagesStats:vector  ETV
attr source  Sentmessages
attr title  "Sentmessages, vector"
vector 455  Lora.endDevice[107]  LostmessagesStats:vector  ETV
attr source  Lostmessages
attr title  "Lostmessages, vector"
vector 456  Lora.endDevice[108]  CH1state:vector  ETV
attr enum  IDLE=0,BUSY=1,TRANSMITTING=2
attr source  state
attr title  "Channel_1 state, vector"
vector 457  Lora.endDevice[108]  usedCh:vector  ETV
attr source  usedChannel
attr title  "UsedChannel, vector"
vector 458  Lora.endDevice[108]  SentmessagesStats:vector  ETV
attr source  Sentmessages
attr title  "Sentmessages, vector"
vector 459  Lora.endDevice[108]  LostmessagesStats:vector  ETV
attr source  Lostmessages
attr title  "Lostmessages, vector"
vector 460  Lora.endDevice[109]  CH1state:vector  ETV
attr enum  IDLE=0,BUSY=1,TRANSMITTING=2
attr source  state
attr title  "Channel_1 state, vector"
vector 461  Lora.endDevice[109]  usedCh:vector  ETV
attr source  usedChannel
attr title  "UsedChannel, vector"
vector 462  Lora.endDevice[109]  SentmessagesStats:vector  ETV
attr source  Sentmessages
attr title  "Sentmessages, vector"
vector 463  Lora.endDevice[109]  LostmessagesStats:vector  ETV
attr source  Lostmessages
attr title  "Lostmessages, vector"
vector 464  Lora.endDevice[110]  CH1state:vector  ETV
attr enum  IDLE=0,BUSY=1,TRANSMITTING=2
attr source  state
attr title  "Channel_1 state, vector"
vector 465  Lora.endDevice[110]  usedCh:vector  ETV
attr source  usedChannel
attr title  "UsedChannel, vector"
vector 466  Lora.endDevice[110]  SentmessagesStats:vector  ETV
attr source  Sentmessages
attr title  "Sentmessages, vector"
vector 467  Lora.endDevice[110]  LostmessagesStats:vector  ETV
attr source  Lostmessages
attr title  "Lostmessages, vector"
vector 468  Lora.endDevice[111]  CH1state:vector  ETV
attr enum  IDLE=0,BUSY=1,TRANSMITTING=2
attr source  state
attr title  "Channel_1 state, vector"
vector 469  Lora.endDevice[111]  usedCh:vector  ETV
attr source  usedChannel
attr title  "UsedChannel, vector"
vector 470  Lora.endDevice[111]  SentmessagesStats:vector  ETV
attr source  Sentmessages
attr title  "Sentmessages, vector"
vector 471  Lora.endDevice[111]  LostmessagesStats:vector  ETV
attr source  Lostmessages
attr title  "Lostmessages, vector"
vector 472  Lora.endDevice[112]  CH1state:vector  ETV
attr enum  IDLE=0,BUSY=1,TRANSMITTING=2
attr source  state
attr title  "Channel_1 state, vector"
vector 473  Lora.endDevice[112]  usedCh:vector  ETV
attr source  usedChannel
attr title  "UsedChannel, vector"
vector 474  Lora.endDevice[112]  SentmessagesStats:vector  ETV
attr source  Sentmessages
attr title  "Sentmessages, vector"
vector 475  Lora.endDevice[112]  LostmessagesStats:vector  ETV
attr source  Lostmessages
attr title  "Lostmessages, vector"
vector 476  Lora.endDevice[113]  CH1state:vector  ETV
attr enum  IDLE=0,BUSY=1,TRANSMITTING=2
attr source  state
attr title  "Channel_1 state, vector"
vector 477  Lora.endDevice[113]  usedCh:vector  ETV
attr source  usedChannel
attr title  "UsedChannel, vector"
vector 478  Lora.endDevice[113]  SentmessagesStats:vector  ETV
attr source  Sentmessages
attr title  "Sentmessages, vector"
vector 479  Lora.endDevice[113]  LostmessagesStats:vector  ETV
attr source  Lostmessages
attr title  "Lostmessages, vector"
vector 480  Lora.endDevice[114]  CH1state:vector  ETV
attr enum  IDLE=0,BUSY=1,TRANSMITTING=2
attr source  state
attr title  "Channel_1 state, vector"
vector 481  Lora.endDevice[114]  usedCh:vector  ETV
attr source  usedChannel
attr title  "UsedChannel, vector"
vector 482  Lora.endDevice[114]  SentmessagesStats:vector  ETV
attr source  Sentmessages
attr title  "Sentmessages, vector"
vector 483  Lora.endDevice[114]  LostmessagesStats:vector  ETV
attr source  Lostmessages
attr title  "Lostmessages, vector"
vector 484  Lora.endDevice[115]  CH1state:vector  ETV
attr enum  IDLE=0,BUSY=1,TRANSMITTING=2
attr source  state
attr title  "Channel_1 state, vector"
vector 485  Lora.endDevice[115]  usedCh:vector  ETV
attr source  usedChannel
attr title  "UsedChannel, vector"
vector 486  Lora.endDevice[115]  SentmessagesStats:vector  ETV
attr source  Sentmessages
attr title  "Sentmessages, vector"
vector 487  Lora.endDevice[115]  LostmessagesStats:vector  ETV
attr source  Lostmessages
attr title  "Lostmessages, vector"
vector 488  Lora.endDevice[116]  CH1state:vector  ETV
attr enum  IDLE=0,BUSY=1,TRANSMITTING=2
attr source  state
attr title  "Channel_1 state, vector"
vector 489  Lora.endDevice[116]  usedCh:vector  ETV
attr source  usedChannel
attr title  "UsedChannel, vector"
vector 490  Lora.endDevice[116]  SentmessagesStats:vector  ETV
attr source  Sentmessages
attr title  "Sentmessages, vector"
vector 491  Lora.endDevice[116]  LostmessagesStats:vector  ETV
attr source  Lostmessages
attr title  "Lostmessages, vector"
vector 492  Lora.endDevice[117]  CH1state:vector  ETV
attr enum  IDLE=0,BUSY=1,TRANSMITTING=2
attr source  state
attr title  "Channel_1 state, vector"
vector 493  Lora.endDevice[117]  usedCh:vector  ETV
attr source  usedChannel
attr title  "UsedChannel, vector"
vector 494  Lora.endDevice[117]  SentmessagesStats:vector  ETV
attr source  Sentmessages
attr title  "Sentmessages, vector"
vector 495  Lora.endDevice[117]  LostmessagesStats:vector  ETV
attr source  Lostmessages
attr title  "Lostmessages, vector"
vector 496  Lora.endDevice[118]  CH1state:vector  ETV
attr enum  IDLE=0,BUSY=1,TRANSMITTING=2
attr source  state
attr title  "Channel_1 state, vector"
vector 497  Lora.endDevice[118]  usedCh:vector  ETV
attr source  usedChannel
attr title  "UsedChannel, vector"
vector 498  Lora.endDevice[118]  SentmessagesStats:vector  ETV
attr source  Sentmessages
attr title  "Sentmessages, vector"
vector 499  Lora.endDevice[118]  LostmessagesStats:vector  ETV
attr source  Lostmessages
attr title  "Lostmessages, vector"
vector 500  Lora.endDevice[119]  CH1state:vector  ETV
attr enum  IDLE=0,BUSY=1,TRANSMITTING=2
attr source  state
attr title  "Channel_1 state, vector"
vector 501  Lora.endDevice[119]  usedCh:vector  ETV
attr source  usedChannel
attr title  "UsedChannel, vector"
vector 502  Lora.endDevice[119]  SentmessagesStats:vector  ETV
attr source  Sentmessages
attr title  "Sentmessages, vector"
vector 503  Lora.endDevice[119]  LostmessagesStats:vector  ETV
attr source  Lostmessages
attr title  "Lostmessages, vector"
vector 504  Lora.endDevice[120]  CH1state:vector  ETV
attr enum  IDLE=0,BUSY=1,TRANSMITTING=2
attr source  state
attr title  "Channel_1 state, vector"
vector 505  Lora.endDevice[120]  usedCh:vector  ETV
attr source  usedChannel
attr title  "UsedChannel, vector"
vector 506  Lora.endDevice[120]  SentmessagesStats:vector  ETV
attr source  Sentmessages
attr title  "Sentmessages, vector"
vector 507  Lora.endDevice[120]  LostmessagesStats:vector  ETV
attr source  Lostmessages
attr title  "Lostmessages, vector"
vector 508  Lora.endDevice[121]  CH1state:vector  ETV
attr enum  IDLE=0,BUSY=1,TRANSMITTING=2
attr source  state
attr title  "Channel_1 state, vector"
vector 509  Lora.endDevice[121]  usedCh:vector  ETV
attr source  usedChannel
attr title  "UsedChannel, vector"
vector 510  Lora.endDevice[121]  SentmessagesStats:vector  ETV
attr source  Sentmessages
attr title  "Sentmessages, vector"
vector 511  Lora.endDevice[121]  LostmessagesStats:vector  ETV
attr source  Lostmessages
attr title  "Lostmessages, vector"
vector 512  Lora.endDevice[122]  CH1state:vector  ETV
attr enum  IDLE=0,BUSY=1,TRANSMITTING=2
attr source  state
attr title  "Channel_1 state, vector"
vector 513  Lora.endDevice[122]  usedCh:vector  ETV
attr source  usedChannel
attr title  "UsedChannel, vector"
vector 514  Lora.endDevice[122]  SentmessagesStats:vector  ETV
attr source  Sentmessages
attr title  "Sentmessages, vector"
vector 515  Lora.endDevice[122]  LostmessagesStats:vector  ETV
attr source  Lostmessages
attr title  "Lostmessages, vector"
vector 516  Lora.endDevice[123]  CH1state:vector  ETV
attr enum  IDLE=0,BUSY=1,TRANSMITTING=2
attr source  state
attr title  "Channel_1 state, vector"
vector 517  Lora.endDevice[123]  usedCh:vector  ETV
attr source  usedChannel
attr title  "UsedChannel, vector"
vector 518  Lora.endDevice[123]  SentmessagesStats:vector  ETV
attr source  Sentmessages
attr title  "Sentmessages, vector"
vector 519  Lora.endDevice[123]  LostmessagesStats:vector  ETV
attr source  Lostmessages
attr title  "Lostmessages, vector"
vector 520  Lora.endDevice[124]  CH1state:vector  ETV
attr enum  IDLE=0,BUSY=1,TRANSMITTING=2
attr source  state
attr title  "Channel_1 state, vector"
vector 521  Lora.endDevice[124]  usedCh:vector  ETV
attr source  usedChannel
attr title  "UsedChannel, vector"
vector 522  Lora.endDevice[124]  SentmessagesStats:vector  ETV
attr source  Sentmessages
attr title  "Sentmessages, vector"
vector 523  Lora.endDevice[124]  LostmessagesStats:vector  ETV
attr source  Lostmessages
attr title  "Lostmessages, vector"
vector 524  Lora.endDevice[125]  CH1state:vector  ETV
attr enum  IDLE=0,BUSY=1,TRANSMITTING=2
attr source  state
attr title  "Channel_1 state, vector"
vector 525  Lora.endDevice[125]  usedCh:vector  ETV
attr source  usedChannel
attr title  "UsedChannel, vector"
vector 526  Lora.endDevice[125]  SentmessagesStats:vector  ETV
attr source  Sentmessages
attr title  "Sentmessages, vector"
vector 527  Lora.endDevice[125]  LostmessagesStats:vector  ETV
attr source  Lostmessages
attr title  "Lostmessages, vector"
vector 528  Lora.endDevice[126]  CH1state:vector  ETV
attr enum  IDLE=0,BUSY=1,TRANSMITTING=2
attr source  state
attr title  "Channel_1 state, vector"
vector 529  Lora.endDevice[126]  usedCh:vector  ETV
attr source  usedChannel
attr title  "UsedChannel, vector"
vector 530  Lora.endDevice[126]  SentmessagesStats:vector  ETV
attr source  Sentmessages
attr title  "Sentmessages, vector"
vector 531  Lora.endDevice[126]  LostmessagesStats:vector  ETV
attr source  Lostmessages
attr title  "Lostmessages, vector"
vector 532  Lora.endDevice[127]  CH1state:vector  ETV
attr enum  IDLE=0,BUSY=1,TRANSMITTING=2
attr source  state
attr title  "Channel_1 state, vector"
vector 533  Lora.endDevice[127]  usedCh:vector  ETV
attr source  usedChannel
attr title  "UsedChannel, vector"
vector 534  Lora.endDevice[127]  SentmessagesStats:vector  ETV
attr source  Sentmessages
attr title  "Sentmessages, vector"
vector 535  Lora.endDevice[127]  LostmessagesStats:vector  ETV
attr source  Lostmessages
attr title  "Lostmessages, vector"
vector 536  Lora.endDevice[128]  CH1state:vector  ETV
attr enum  IDLE=0,BUSY=1,TRANSMITTING=2
attr source  state
attr title  "Channel_1 state, vector"
vector 537  Lora.endDevice[128]  usedCh:vector  ETV
attr source  usedChannel
attr title  "UsedChannel, vector"
vector 538  Lora.endDevice[128]  SentmessagesStats:vector  ETV
attr source  Sentmessages
attr title  "Sentmessages, vector"
vector 539  Lora.endDevice[128]  LostmessagesStats:vector  ETV
attr source  Lostmessages
attr title  "Lostmessages, vector"
vector 540  Lora.endDevice[129]  CH1state:vector  ETV
attr enum  IDLE=0,BUSY=1,TRANSMITTING=2
attr source  state
attr title  "Channel_1 state, vector"
vector 541  Lora.endDevice[129]  usedCh:vector  ETV
attr source  usedChannel
attr title  "UsedChannel, vector"
vector 542  Lora.endDevice[129]  SentmessagesStats:vector  ETV
attr source  Sentmessages
attr title  "Sentmessages, vector"
vector 543  Lora.endDevice[129]  LostmessagesStats:vector  ETV
attr source  Lostmessages
attr title  "Lostmessages, vector"
vector 544  Lora.endDevice[130]  CH1state:vector  ETV
attr enum  IDLE=0,BUSY=1,TRANSMITTING=2
attr source  state
attr title  "Channel_1 state, vector"
vector 545  Lora.endDevice[130]  usedCh:vector  ETV
attr source  usedChannel
attr title  "UsedChannel, vector"
vector 546  Lora.endDevice[130]  SentmessagesStats:vector  ETV
attr source  Sentmessages
attr title  "Sentmessages, vector"
vector 547  Lora.endDevice[130]  LostmessagesStats:vector  ETV
attr source  Lostmessages
attr title  "Lostmessages, vector"
vector 548  Lora.endDevice[131]  CH1state:vector  ETV
attr enum  IDLE=0,BUSY=1,TRANSMITTING=2
attr source  state
attr title  "Channel_1 state, vector"
vector 549  Lora.endDevice[131]  usedCh:vector  ETV
attr source  usedChannel
attr title  "UsedChannel, vector"
vector 550  Lora.endDevice[131]  SentmessagesStats:vector  ETV
attr source  Sentmessages
attr title  "Sentmessages, vector"
vector 551  Lora.endDevice[131]  LostmessagesStats:vector  ETV
attr source  Lostmessages
attr title  "Lostmessages, vector"
vector 552  Lora.endDevice[132]  CH1state:vector  ETV
attr enum  IDLE=0,BUSY=1,TRANSMITTING=2
attr source  state
attr title  "Channel_1 state, vector"
vector 553  Lora.endDevice[132]  usedCh:vector  ETV
attr source  usedChannel
attr title  "UsedChannel, vector"
vector 554  Lora.endDevice[132]  SentmessagesStats:vector  ETV
attr source  Sentmessages
attr title  "Sentmessages, vector"
vector 555  Lora.endDevice[132]  LostmessagesStats:vector  ETV
attr source  Lostmessages
attr title  "Lostmessages, vector"
vector 556  Lora.endDevice[133]  CH1state:vector  ETV
attr enum  IDLE=0,BUSY=1,TRANSMITTING=2
attr source  state
attr title  "Channel_1 state, vector"
vector 557  Lora.endDevice[133]  usedCh:vector  ETV
attr source  usedChannel
attr title  "UsedChannel, vector"
vector 558  Lora.endDevice[133]  SentmessagesStats:vector  ETV
attr source  Sentmessages
attr title  "Sentmessages, vector"
vector 559  Lora.endDevice[133]  LostmessagesStats:vector  ETV
attr source  Lostmessages
attr title  "Lostmessages, vector"
vector 560  Lora.endDevice[134]  CH1state:vector  ETV
attr enum  IDLE=0,BUSY=1,TRANSMITTING=2
attr source  state
attr title  "Channel_1 state, vector"
vector 561  Lora.endDevice[134]  usedCh:vector  ETV
attr source  usedChannel
attr title  "UsedChannel, vector"
vector 562  Lora.endDevice[134]  SentmessagesStats:vector  ETV
attr source  Sentmessages
attr title  "Sentmessages, vector"
vector 563  Lora.endDevice[134]  LostmessagesStats:vector  ETV
attr source  Lostmessages
attr title  "Lostmessages, vector"
vector 564  Lora.endDevice[135]  CH1state:vector  ETV
attr enum  IDLE=0,BUSY=1,TRANSMITTING=2
attr source  state
attr title  "Channel_1 state, vector"
vector 565  Lora.endDevice[135]  usedCh:vector  ETV
attr source  usedChannel
attr title  "UsedChannel, vector"
vector 566  Lora.endDevice[135]  SentmessagesStats:vector  ETV
attr source  Sentmessages
attr title  "Sentmessages, vector"
vector 567  Lora.endDevice[135]  LostmessagesStats:vector  ETV
attr source  Lostmessages
attr title  "Lostmessages, vector"
vector 568  Lora.endDevice[136]  CH1state:vector  ETV
attr enum  IDLE=0,BUSY=1,TRANSMITTING=2
attr source  state
attr title  "Channel_1 state, vector"
vector 569  Lora.endDevice[136]  usedCh:vector  ETV
attr source  usedChannel
attr title  "UsedChannel, vector"
vector 570  Lora.endDevice[136]  SentmessagesStats:vector  ETV
attr source  Sentmessages
attr title  "Sentmessages, vector"
vector 571  Lora.endDevice[136]  LostmessagesStats:vector  ETV
attr source  Lostmessages
attr title  "Lostmessages, vector"
vector 572  Lora.endDevice[137]  CH1state:vector  ETV
attr enum  IDLE=0,BUSY=1,TRANSMITTING=2
attr source  state
attr title  "Channel_1 state, vector"
vector 573  Lora.endDevice[137]  usedCh:vector  ETV
attr source  usedChannel
attr title  "UsedChannel, vector"
vector 574  Lora.endDevice[137]  SentmessagesStats:vector  ETV
attr source  Sentmessages
attr title  "Sentmessages, vector"
vector 575  Lora.endDevice[137]  LostmessagesStats:vector  ETV
attr source  Lostmessages
attr title  "Lostmessages, vector"
vector 576  Lora.endDevice[138]  CH1state:vector  ETV
attr enum  IDLE=0,BUSY=1,TRANSMITTING=2
attr source  state
attr title  "Channel_1 state, vector"
vector 577  Lora.endDevice[138]  usedCh:vector  ETV
attr source  usedChannel
attr title  "UsedChannel, vector"
vector 578  Lora.endDevice[138]  SentmessagesStats:vector  ETV
attr source  Sentmessages
attr title  "Sentmessages, vector"
vector 579  Lora.endDevice[138]  LostmessagesStats:vector  ETV
attr source  Lostmessages
attr title  "Lostmessages, vector"
vector 580  Lora.endDevice[139]  CH1state:vector  ETV
attr enum  IDLE=0,BUSY=1,TRANSMITTING=2
attr source  state
attr title  "Channel_1 state, vector"
vector 581  Lora.endDevice[139]  usedCh:vector  ETV
attr source  usedChannel
attr title  "UsedChannel, vector"
vector 582  Lora.endDevice[139]  SentmessagesStats:vector  ETV
attr source  Sentmessages
attr title  "Sentmessages, vector"
vector 583  Lora.endDevice[139]  LostmessagesStats:vector  ETV
attr source  Lostmessages
attr title  "Lostmessages, vector"
vector 584  Lora.endDevice[140]  CH1state:vector  ETV
attr enum  IDLE=0,BUSY=1,TRANSMITTING=2
attr source  state
attr title  "Channel_1 state, vector"
vector 585  Lora.endDevice[140]  usedCh:vector  ETV
attr source  usedChannel
attr title  "UsedChannel, vector"
vector 586  Lora.endDevice[140]  SentmessagesStats:vector  ETV
attr source  Sentmessages
attr title  "Sentmessages, vector"
vector 587  Lora.endDevice[140]  LostmessagesStats:vector  ETV
attr source  Lostmessages
attr title  "Lostmessages, vector"
vector 588  Lora.endDevice[141]  CH1state:vector  ETV
attr enum  IDLE=0,BUSY=1,TRANSMITTING=2
attr source  state
attr title  "Channel_1 state, vector"
vector 589  Lora.endDevice[141]  usedCh:vector  ETV
attr source  usedChannel
attr title  "UsedChannel, vector"
vector 590  Lora.endDevice[141]  SentmessagesStats:vector  ETV
attr source  Sentmessages
attr title  "Sentmessages, vector"
vector 591  Lora.endDevice[141]  LostmessagesStats:vector  ETV
attr source  Lostmessages
attr title  "Lostmessages, vector"
vector 592  Lora.endDevice[142]  CH1state:vector  ETV
attr enum  IDLE=0,BUSY=1,TRANSMITTING=2
attr source  state
attr title  "Channel_1 state, vector"
vector 593  Lora.endDevice[142]  usedCh:vector  ETV
attr source  usedChannel
attr title  "UsedChannel, vector"
vector 594  Lora.endDevice[142]  SentmessagesStats:vector  ETV
attr source  Sentmessages
attr title  "Sentmessages, vector"
vector 595  Lora.endDevice[142]  LostmessagesStats:vector  ETV
attr source  Lostmessages
attr title  "Lostmessages, vector"
vector 596  Lora.endDevice[143]  CH1state:vector  ETV
attr enum  IDLE=0,BUSY=1,TRANSMITTING=2
attr source  state
attr title  "Channel_1 state, vector"
vector 597  Lora.endDevice[143]  usedCh:vector  ETV
attr source  usedChannel
attr title  "UsedChannel, vector"
vector 598  Lora.endDevice[143]  SentmessagesStats:vector  ETV
attr source  Sentmessages
attr title  "Sentmessages, vector"
vector 599  Lora.endDevice[143]  LostmessagesStats:vector  ETV
attr source  Lostmessages
attr title  "Lostmessages, vector"
vector 600  Lora.endDevice[144]  CH1state:vector  ETV
attr enum  IDLE=0,BUSY=1,TRANSMITTING=2
attr source  state
attr title  "Channel_1 state, vector"
vector 601  Lora.endDevice[144]  usedCh:vector  ETV
attr source  usedChannel
attr title  "UsedChannel, vector"
vector 602  Lora.endDevice[144]  SentmessagesStats:vector  ETV
attr source  Sentmessages
attr title  "Sentmessages, vector"
vector 603  Lora.endDevice[144]  LostmessagesStats:vector  ETV
attr source  Lostmessages
attr title  "Lostmessages, vector"
vector 604  Lora.endDevice[145]  CH1state:vector  ETV
attr enum  IDLE=0,BUSY=1,TRANSMITTING=2
attr source  state
attr title  "Channel_1 state, vector"
vector 605  Lora.endDevice[145]  usedCh:vector  ETV
attr source  usedChannel
attr title  "UsedChannel, vector"
vector 606  Lora.endDevice[145]  SentmessagesStats:vector  ETV
attr source  Sentmessages
attr title  "Sentmessages, vector"
vector 607  Lora.endDevice[145]  LostmessagesStats:vector  ETV
attr source  Lostmessages
attr title  "Lostmessages, vector"
vector 608  Lora.endDevice[146]  CH1state:vector  ETV
attr enum  IDLE=0,BUSY=1,TRANSMITTING=2
attr source  state
attr title  "Channel_1 state, vector"
vector 609  Lora.endDevice[146]  usedCh:vector  ETV
attr source  usedChannel
attr title  "UsedChannel, vector"
vector 610  Lora.endDevice[146]  SentmessagesStats:vector  ETV
attr source  Sentmessages
attr title  "Sentmessages, vector"
vector 611  Lora.endDevice[146]  LostmessagesStats:vector  ETV
attr source  Lostmessages
attr title  "Lostmessages, vector"
vector 612  Lora.endDevice[147]  CH1state:vector  ETV
attr enum  IDLE=0,BUSY=1,TRANSMITTING=2
attr source  state
attr title  "Channel_1 state, vector"
[...]
816	23127	9.895	1
816	23866	10.207	1
816	24647	10.541	1
816	25315	10.814	1
816	26017	11.098	1
816	26969	11.513	1
816	27646	11.82	1
816	28748	12.283	1
816	29708	12.711	1
816	30397	12.992	1
816	30860	13.182	1
816	31244	13.363	1
816	31824	13.594	1
816	33098	14.096	1
816	33769	14.403	1
816	34610	14.739	1
816	35324	15.017	1
816	35940	15.269	1
816	36958	15.714	1
816	37586	15.969	1
816	38955	16.516	1
816	40073	16.954	1
816	40668	17.21	1
816	41669	17.619	1
816	42348	17.948	1
816	42819	18.154	1
816	43969	18.661	1
816	45560	19.35	1
816	46392	19.72	1
816	47009	19.976	1
816	47548	20.215	1
816	50104	21.298	1
816	50719	21.54	1
816	51327	21.804	1
816	51746	21.988	1
816	52841	22.425	1
816	53319	22.623	1
816	53793	22.821	1
816	54799	23.219	1
816	55687	23.569	1
816	56127	23.748	1
816	56598	23.924	1
816	57351	24.25	1
816	58071	24.542	1
816	58790	24.845	1
816	59192	25.026	1
816	59628	25.234	1
816	60197	25.456	1
816	61040	25.837	1
816	61647	26.098	1
816	62591	26.474	1
816	64364	27.208	1
816	65964	27.891	1
816	66612	28.165	1
816	68499	28.976	1
816	68932	29.178	1
816	71019	30.063	1
816	72026	30.474	1
816	73344	30.986	1
816	73757	31.17	1
816	75436	31.892	1
816	76267	32.211	1
816	76721	32.407	1
816	77380	32.655	1
816	77903	32.871	1
816	78339	33.062	1
816	78853	33.29	1
816	79380	33.525	1
816	80116	33.824	1
816	81023	34.183	1
816	81734	34.466	1
816	82405	34.768	1
816	83511	35.236	1
816	84305	35.588	1
816	84990	35.863	1
816	85667	36.172	1
816	86193	36.369	1
816	86820	36.656	1
816	88452	37.329	1
816	89357	37.694	1
816	89749	37.872	1
816	91104	38.454	1
816	91687	38.686	1
816	92129	38.867	1
816	93454	39.409	1
816	93904	39.595	1
816	94385	39.783	1
816	95472	40.261	1
816	95903	40.442	1
816	97373	41.109	1
816	99911	42.126	1
816	102121	43.085	1
816	102778	43.35	1
816	103108	43.522	1
816	104244	43.981	1
816	104830	44.243	1
816	105283	44.418	1
816	106364	44.847	1
816	107178	45.176	1
816	108097	45.568	1
816	108666	45.811	1
816	109407	46.088	1
816	110712	46.677	1
816	112211	47.307	1
816	113662	47.912	1
816	114848	48.393	1
816	115730	48.741	1
816	116831	49.195	1
816	117727	49.553	1
816	119446	50.283	1
816	120624	50.751	1
816	121195	50.993	1
816	122181	51.425	1
816	122762	51.655	1
816	123654	52.026	1
816	124321	52.272	1
816	125632	52.788	1
816	126026	52.963	1
816	126632	53.225	1
816	127077	53.409	1
816	127726	53.669	1
816	129626	54.478	1
816	130403	54.8	1
816	131247	55.188	1
816	131811	55.437	1
816	133195	55.991	1
816	133926	56.292	1
816	134425	56.498	1
816	134857	56.689	1
816	136442	57.325	1
816	136986	57.513	1
816	137414	57.707	1
816	138424	58.136	1
816	139722	58.706	1
816	140126	58.88	1
816	140698	59.11	1
816	141177	59.331	1
816	141722	59.549	1
816	143082	60.102	1
816	143978	60.496	1
816	144457	60.695	1
816	145433	61.103	1
816	146117	61.388	1
816	146668	61.653	1
816	147313	61.914	1
816	148390	62.373	1
816	148982	62.654	1
816	149482	62.856	1
816	150149	63.15	1
816	150864	63.461	1
816	152123	63.983	1
816	152529	64.158	1
816	153197	64.451	1
816	155322	65.332	1
816	155891	65.544	1
816	156440	65.766	1
816	156869	65.943	1
816	157503	66.234	1
816	158626	66.724	1
816	160109	67.347	1
816	161682	68.043	1
816	162529	68.399	1
816	163101	68.661	1
816	164094	69.044	1
816	164722	69.303	1
816	165254	69.54	1
816	166221	69.956	1
816	166734	70.17	1
816	167872	70.649	1
816	168303	70.82	1
816	169016	71.15	1
816	169918	71.502	1
816	170482	71.754	1
816	170920	71.943	1
816	171719	72.301	1
816	172883	72.806	1
816	173892	73.212	1
816	174835	73.614	1
816	175592	73.927	1
816	176247	74.224	1
816	176685	74.419	1
816	178174	75.047	1
816	180148	75.879	1
816	180679	76.136	1
816	181182	76.344	1
816	181935	76.694	1
816	182601	76.997	1
816	183195	77.246	1
816	184050	77.625	1
816	184467	77.826	1
816	185965	78.488	1
816	186513	78.721	1
816	187665	79.201	1
816	188684	79.638	1
816	189224	79.848	1
816	189905	80.133	1
816	190505	80.369	1
816	191393	80.748	1
816	191849	80.958	1
816	192506	81.255	1
816	195299	82.419	1
816	196208	82.777	1
816	197037	83.129	1
816	198432	83.719	1
816	199011	83.975	1
816	199934	84.364	1
816	201544	85.011	1
816	201986	85.182	1
816	202370	85.354	1
816	203156	85.686	1
816	204120	86.1	1
816	205351	86.596	1
816	205799	86.78	1
816	206534	87.086	1
816	207498	87.487	1
816	208154	87.8	1
816	208926	88.095	1
816	209313	88.279	1
816	210045	88.59	1
816	210793	88.903	1
816	211692	89.281	1
816	213139	89.877	1
816	214069	90.284	1
816	214609	90.511	1
816	215747	91.028	1
816	216319	91.29	1
816	218088	92.002	1
816	218746	92.267	1
816	219361	92.545	1
817	0	0	0
817	244	0.073	1
817	1196	0.494	2
817	1843	0.753	3
817	3421	1.433	1
817	3951	1.653	2
817	4899	2.048	3
817	5523	2.297	1
817	6101	2.552	2
817	6653	2.773	3
817	7248	3.008	1
817	8874	3.751	2
817	9752	4.132	3
817	13035	5.547	1
817	13801	5.891	2
817	14990	6.4	3
817	16252	6.914	1
817	16878	7.172	2
817	17538	7.462	3
817	18525	7.888	1
817	19685	8.408	2
817	21523	9.198	3
817	22006	9.39	1
817	22405	9.564	2
817	23127	9.895	3
817	23866	10.207	1
817	24647	10.541	2
817	25315	10.814	3
817	26017	11.098	1
817	26969	11.513	2
817	27646	11.82	3
817	28748	12.283	1
817	29708	12.711	2
817	30397	12.992	3
817	30860	13.182	1
817	31244	13.363	2
817	31824	13.594	3
817	33098	14.096	1
817	33769	14.403	2
817	34610	14.739	3
817	35324	15.017	1
817	35940	15.269	2
817	36958	15.714	3
817	37586	15.969	1
817	38955	16.516	2
817	40073	16.954	3
817	40668	17.21	1
817	41669	17.619	2
817	42348	17.948	3
817	42819	18.154	1
817	43969	18.661	2
817	45560	19.35	3
817	46392	19.72	1
817	47009	19.976	2
817	47548	20.215	3
817	50104	21.298	1
817	50719	21.54	2
817	51327	21.804	3
817	51746	21.988	1
817	52841	22.425	2
817	53319	22.623	3
817	53793	22.821	1
817	54799	23.219	2
817	55687	23.569	3
817	56127	23.748	1
817	56598	23.924	2
817	57351	24.25	3
817	58071	24.542	1
817	58790	24.845	2
817	59192	25.026	3
817	59628	25.234	1
817	60197	25.456	2
817	61040	25.837	3
817	61647	26.098	1
817	62591	26.474	2
817	64364	27.208	3
817	65964	27.891	1
817	66612	28.165	2
817	68499	28.976	3
817	68932	29.178	1
817	71019	30.063	2
817	72026	30.474	3
817	73344	30.986	1
817	73757	31.17	2
817	75436	31.892	3
817	76267	32.211	1
817	76721	32.407	2
817	77380	32.655	3
817	77903	32.871	1
817	78339	33.062	2
817	78853	33.29	3
817	79380	33.525	1
817	80116	33.824	2
817	81023	34.183	3
817	81734	34.466	1
817	82405	34.768	2
817	83511	35.236	3
817	84305	35.588	1
817	84990	35.863	2
817	85667	36.172	3
817	86193	36.369	1
817	86820	36.656	2
817	88452	37.329	3
817	89357	37.694	1
817	89749	37.872	2
817	91104	38.454	3
817	91687	38.686	1
817	92129	38.867	2
817	93454	39.409	3
817	93904	39.595	1
817	94385	39.783	2
817	95472	40.261	3
817	95903	40.442	1
817	97373	41.109	2
817	99911	42.126	3
817	102121	43.085	1
817	102778	43.35	2
817	103108	43.522	3
817	104244	43.981	1
817	104830	44.243	2
817	105283	44.418	3
817	106364	44.847	1
817	107178	45.176	2
817	108097	45.568	3
817	108666	45.811	1
817	109407	46.088	2
817	110712	46.677	3
817	112211	47.307	1
817	113662	47.912	2
817	114848	48.393	3
817	115730	48.741	1
817	116831	49.195	2
817	117727	49.553	3
817	119446	50.283	1
817	120624	50.751	2
817	121195	50.993	3
817	122181	51.425	1
817	122762	51.655	2
817	123654	52.026	3
817	124321	52.272	1
817	125632	52.788	2
817	126026	52.963	3
817	126632	53.225	1
817	127077	53.409	2
817	127726	53.669	3
817	129626	54.478	1
817	130403	54.8	2
817	131247	55.188	3
817	131811	55.437	1
817	133195	55.991	2
817	133926	56.292	3
817	134425	56.498	1
817	134857	56.689	2
817	136442	57.325	3
817	136986	57.513	1
817	137414	57.707	2
817	138424	58.136	3
817	139722	58.706	1
817	140126	58.88	2
817	140698	59.11	3
817	141177	59.331	1
817	141722	59.549	2
817	143082	60.102	3
817	143978	60.496	1
817	144457	60.695	2
817	145433	61.103	3
817	146117	61.388	1
817	146668	61.653	2
817	147313	61.914	3
817	148390	62.373	1
817	148982	62.654	2
817	149482	62.856	3
817	150149	63.15	1
817	150864	63.461	2
817	152123	63.983	3
817	152529	64.158	1
817	153197	64.451	2
817	155322	65.332	3
817	155891	65.544	1
817	156440	65.766	2
817	156869	65.943	3
817	157503	66.234	1
817	158626	66.724	2
817	160109	67.347	3
817	161682	68.043	1
817	162529	68.399	2
817	163101	68.661	3
817	164094	69.044	1
817	164722	69.303	2
817	165254	69.54	3
817	166221	69.956	1
817	166734	70.17	2
817	167872	70.649	3
817	168303	70.82	1
817	169016	71.15	2
817	169918	71.502	3
817	170482	71.754	1
817	170920	71.943	2
817	171719	72.301	3
817	172883	72.806	1
817	173892	73.212	2
817	174835	73.614	3
817	175592	73.927	1
817	176247	74.224	2
817	176685	74.419	3
817	178174	75.047	1
817	180148	75.879	2
817	180679	76.136	3
817	181182	76.344	1
817	181935	76.694	2
817	182601	76.997	3
817	183195	77.246	1
817	184050	77.625	2
817	184467	77.826	3
817	185965	78.488	1
817	186513	78.721	2
817	187665	79.201	3
817	188684	79.638	1
817	189224	79.848	2
817	189905	80.133	3
817	190505	80.369	1
817	191393	80.748	2
817	191849	80.958	3
817	192506	81.255	1
817	195299	82.419	2
817	196208	82.777	3
817	197037	83.129	1
817	198432	83.719	2
817	199011	83.975	3
817	199934	84.364	1
817	201544	85.011	2
817	201986	85.182	3
817	202370	85.354	1
817	203156	85.686	2
817	204120	86.1	3
817	205351	86.596	1
817	205799	86.78	2
817	206534	87.086	3
817	207498	87.487	1
817	208154	87.8	2
817	208926	88.095	3
817	209313	88.279	1
817	210045	88.59	2
817	210793	88.903	3
817	211692	89.281	1
817	213139	89.877	2
817	214069	90.284	3
817	214609	90.511	1
817	215747	91.028	2
817	216319	91.29	3
817	218088	92.002	1
817	218746	92.267	2
817	219361	92.545	3
818	0	0	0
819	0	0	0
820	0	0	0
820	105	0.032	1
820	873	0.351	1
820	1609	0.656	1
820	2052	0.831	1
820	2472	1.007	1
820	3248	1.359	1
820	4753	1.969	1
820	6015	2.512	1
820	7727	3.239	1
820	8264	3.477	1
820	9204	3.884	1
820	11032	4.683	1
820	11778	5.011	1
820	13084	5.561	1
820	13988	5.961	1
820	15740	6.682	1
820	16204	6.893	1
820	17060	7.262	1
820	17776	7.577	1
820	18463	7.868	1
820	20355	8.694	1
820	21982	9.376	1
820	22377	9.554	1
820	22765	9.732	1
820	23847	10.195	1
820	24253	10.376	1
820	24786	10.6	1
820	26138	11.144	1
820	26541	11.335	1
820	26946	11.507	1
820	27890	11.92	1
820	29630	12.659	1
820	30492	13.023	1
820	31282	13.372	1
820	32262	13.772	1
820	33247	14.151	1
820	33680	14.35	1
820	35678	15.177	1
820	36497	15.489	1
820	38107	16.169	1
820	38634	16.39	1
820	39104	16.588	1
820	40342	17.058	1
820	41300	17.483	1
820	41786	17.688	1
820	42784	18.138	1
820	43231	18.333	1
820	43771	18.58	1
820	44899	19.072	1
820	45552	19.348	1
820	46754	19.86	1
820	49151	20.895	1
820	49816	21.156	1
820	51657	21.943	1
820	54110	22.941	1
820	54763	23.209	1
820	55455	23.475	1
820	56500	23.885	1
820	57140	24.155	1
820	57973	24.501	1
820	59317	25.083	1
820	59980	25.367	1
820	60548	25.59	1
820	61694	26.115	1
820	62457	26.432	1
820	63033	26.667	1
820	64989	27.463	1
820	65568	27.7	1
820	66625	28.173	1
820	67124	28.376	1
820	67826	28.683	1
820	69054	29.22	1
820	69958	29.595	1
820	71071	30.077	1
820	72978	30.865	1
820	73643	31.132	1
820	74094	31.325	1
820	75434	31.891	1
820	76430	32.268	1
820	76810	32.443	1
820	77354	32.649	1
820	78263	33.027	1
820	78835	33.283	1
820	80701	34.061	1
820	82401	34.766	1
820	83811	35.364	1
820	84419	35.639	1
820	85434	36.066	1
820	85965	36.277	1
820	86745	36.608	1
820	88364	37.299	1
820	89260	37.652	1
820	89872	37.935	1
820	90853	38.336	1
820	93361	39.375	1
820	94894	40.013	1
820	95800	40.387	1
820	96580	40.731	1
820	97075	40.95	1
820	98055	41.364	1
820	99352	41.893	1
820	99860	42.1	1
820	100283	42.277	1
820	101743	42.907	1
820	102559	43.28	1
820	103028	43.471	1
820	104139	43.937	1
820	104623	44.144	1
820	105222	44.394	1
820	105963	44.681	1
820	106388	44.852	1
820	107530	45.314	1
820	109717	46.215	1
820	110692	46.668	1
820	111703	47.104	1
820	112382	47.374	1
820	112973	47.639	1
820	113681	47.92	1
820	115070	48.468	1
820	115808	48.776	1
820	116902	49.225	1
820	117691	49.543	1
820	118072	49.713	1
820	119013	50.096	1
820	119509	50.301	1
820	120162	50.567	1
820	120651	50.766	1
820	122893	51.709	1
820	123648	52.022	1
820	124357	52.29	1
820	124796	52.461	1
820	125807	52.879	1
820	127241	53.465	1
820	127684	53.635	1
820	128491	54.003	1
820	129525	54.444	1
820	130988	55.088	1
820	131945	55.487	1
820	132963	55.887	1
820	134099	56.371	1
820	134586	56.569	1
820	135172	56.829	1
820	135687	57.043	1
820	137210	57.63	1
820	137677	57.819	1
820	138161	58.035	1
820	138882	58.345	1
820	139470	58.608	1
820	140002	58.821	1
820	141043	59.259	1
820	141963	59.629	1
820	142828	59.998	1
820	143558	60.323	1
820	144362	60.672	1
820	144852	60.856	1
820	145734	61.243	1
820	146385	61.51	1
820	146941	61.735	1
820	147297	61.91	1
820	148024	62.22	1
820	149191	62.726	1
820	150673	63.388	1
820	151541	63.731	1
820	152159	64.009	1
820	153033	64.371	1
820	153483	64.564	1
820	154064	64.797	1
820	154788	65.103	1
820	155393	65.355	1
820	156464	65.779	1
820	156994	66.006	1
820	157457	66.21	1
820	159129	66.934	1
820	160000	67.296	1
820	160859	67.663	1
820	161371	67.888	1
820	162033	68.197	1
820	162700	68.458	1
820	163760	68.935	1
820	164849	69.363	1
820	166761	70.18	1
820	167152	70.35	1
820	168492	70.913	1
820	169236	71.232	1
820	170489	71.756	1
820	171111	72.025	1
820	171713	72.297	1
820	172680	72.728	1
820	173278	72.942	1
820	174610	73.518	1
820	176197	74.2	1
820	177267	74.661	1
820	177728	74.857	1
820	178767	75.307	1
820	179231	75.485	1
820	179769	75.719	1
820	180262	75.915	1
820	180567	76.087	1
820	181185	76.345	1
820	181814	76.641	1
820	182513	76.949	1
820	182906	77.13	1
820	183342	77.32	1
820	184200	77.69	1
820	184939	78.04	1
820	185588	78.334	1
820	186190	78.598	1
820	186781	78.837	1
820	187389	79.108	1
820	188518	79.569	1
820	189942	80.149	1
820	191298	80.703	1
820	191859	80.96	1
820	193070	81.492	1
820	193799	81.794	1
820	194315	82.023	1
820	194742	82.201	1
820	195655	82.55	1
820	196217	82.783	1
820	196865	83.047	1
820	198174	83.615	1
820	198653	83.828	1
820	200135	84.445	1
820	200753	84.69	1
820	201759	85.114	1
820	202704	85.477	1
820	203380	85.786	1
820	203863	86.01	1
820	204319	86.194	1
820	205116	86.507	1
820	205600	86.689	1
820	206628	87.11	1
820	207152	87.344	1
820	207992	87.719	1
820	208433	87.915	1
820	209535	88.365	1
820	210149	88.641	1
820	210599	88.835	1
820	211342	89.135	1
820	212090	89.448	1
820	212619	89.668	1
820	213318	89.981	1
820	213991	90.262	1
820	214792	90.589	1
820	216082	91.165	1
820	216894	91.521	1
820	217595	91.819	1
820	218317	92.114	1
820	219140	92.446	1
821	0	0	0
821	105	0.032	1
821	873	0.351	2
821	1609	0.656	3
821	2052	0.831	1
821	2472	1.007	2
821	3248	1.359	3
821	4753	1.969	1
821	6015	2.512	2
821	7727	3.239	3
821	8264	3.477	1
821	9204	3.884	2
821	11032	4.683	3
821	11778	5.011	1
821	13084	5.561	2
821	13988	5.961	3
821	15740	6.682	1
821	16204	6.893	2
821	17060	7.262	3
821	17776	7.577	1
821	18463	7.868	2
821	20355	8.694	3
821	21982	9.376	1
821	22377	9.554	2
821	22765	9.732	3
821	23847	10.195	1
821	24253	10.376	2
821	24786	10.6	3
821	26138	11.144	1
821	26541	11.335	2
821	26946	11.507	3
821	27890	11.92	1
821	29630	12.659	2
821	30492	13.023	3
821	31282	13.372	1
821	32262	13.772	2
821	33247	14.151	3
821	33680	14.35	1
821	35678	15.177	2
821	36497	15.489	3
821	38107	16.169	1
821	38634	16.39	2
821	39104	16.588	3
821	40342	17.058	1
821	41300	17.483	2
821	41786	17.688	3
821	42784	18.138	1
821	43231	18.333	2
821	43771	18.58	3
821	44899	19.072	1
821	45552	19.348	2
821	46754	19.86	3
821	49151	20.895	1
821	49816	21.156	2
821	51657	21.943	3
821	54110	22.941	1
821	54763	23.209	2
821	55455	23.475	3
821	56500	23.885	1
821	57140	24.155	2
821	57973	24.501	3
821	59317	25.083	1
821	59980	25.367	2
821	60548	25.59	3
821	61694	26.115	1
821	62457	26.432	2
821	63033	26.667	3
821	64989	27.463	1
821	65568	27.7	2
821	66625	28.173	3
821	67124	28.376	1
821	67826	28.683	2
821	69054	29.22	3
821	69958	29.595	1
821	71071	30.077	2
821	72978	30.865	3
821	73643	31.132	1
821	74094	31.325	2
821	75434	31.891	3
821	76430	32.268	1
821	76810	32.443	2
821	77354	32.649	3
821	78263	33.027	1
821	78835	33.283	2
821	80701	34.061	3
821	82401	34.766	1
821	83811	35.364	2
821	84419	35.639	3
821	85434	36.066	1
821	85965	36.277	2
821	86745	36.608	3
821	88364	37.299	1
821	89260	37.652	2
821	89872	37.935	3
821	90853	38.336	1
821	93361	39.375	2
821	94894	40.013	3
821	95800	40.387	1
821	96580	40.731	2
821	97075	40.95	3
821	98055	41.364	1
821	99352	41.893	2
821	99860	42.1	3
821	100283	42.277	1
821	101743	42.907	2
821	102559	43.28	3
821	103028	43.471	1
821	104139	43.937	2
821	104623	44.144	3
821	105222	44.394	1
821	105963	44.681	2
821	106388	44.852	3
821	107530	45.314	1
821	109717	46.215	2
821	110692	46.668	3
821	111703	47.104	1
821	112382	47.374	2
821	112973	47.639	3
821	113681	47.92	1
821	115070	48.468	2
821	115808	48.776	3
821	116902	49.225	1
821	117691	49.543	2
821	118072	49.713	3
821	119013	50.096	1
821	119509	50.301	2
821	120162	50.567	3
821	120651	50.766	1
821	122893	51.709	2
821	123648	52.022	3
821	124357	52.29	1
821	124796	52.461	2
821	125807	52.879	3
821	127241	53.465	1
821	127684	53.635	2
821	128491	54.003	3
821	129525	54.444	1
821	130988	55.088	2
821	131945	55.487	3
821	132963	55.887	1
821	134099	56.371	2
821	134586	56.569	3
821	135172	56.829	1
821	135687	57.043	2
821	137210	57.63	3
821	137677	57.819	1
821	138161	58.035	2
821	138882	58.345	3
821	139470	58.608	1
821	140002	58.821	2
821	141043	59.259	3
821	141963	59.629	1
821	142828	59.998	2
821	143558	60.323	3
821	144362	60.672	1
821	144852	60.856	2
821	145734	61.243	3
821	146385	61.51	1
821	146941	61.735	2
821	147297	61.91	3
821	148024	62.22	1
821	149191	62.726	2
821	150673	63.388	3
821	151541	63.731	1
821	152159	64.009	2
821	153033	64.371	3
821	153483	64.564	1
821	154064	64.797	2
821	154788	65.103	3
821	155393	65.355	1
821	156464	65.779	2
821	156994	66.006	3
821	157457	66.21	1
821	159129	66.934	2
821	160000	67.296	3
821	160859	67.663	1
821	161371	67.888	2
821	162033	68.197	3
821	162700	68.458	1
821	163760	68.935	2
821	164849	69.363	3
821	166761	70.18	1
821	167152	70.35	2
821	168492	70.913	3
821	169236	71.232	1
821	170489	71.756	2
821	171111	72.025	3
821	171713	72.297	1
821	172680	72.728	2
821	173278	72.942	3
821	174610	73.518	1
821	176197	74.2	2
821	177267	74.661	3
821	177728	74.857	1
821	178767	75.307	2
821	179231	75.485	3
821	179769	75.719	1
821	180262	75.915	2
821	180567	76.087	3
821	181185	76.345	1
821	181814	76.641	2
821	182513	76.949	3
821	182906	77.13	1
821	183342	77.32	2
821	184200	77.69	3
821	184939	78.04	1
821	185588	78.334	2
821	186190	78.598	3
821	186781	78.837	1
821	187389	79.108	2
821	188518	79.569	3
821	189942	80.149	1
821	191298	80.703	2
821	191859	80.96	3
821	193070	81.492	1
821	193799	81.794	2
821	194315	82.023	3
821	194742	82.201	1
821	195655	82.55	2
821	196217	82.783	3
821	196865	83.047	1
821	198174	83.615	2
821	198653	83.828	3
821	200135	84.445	1
821	200753	84.69	2
821	201759	85.114	3
821	202704	85.477	1
821	203380	85.786	2
821	203863	86.01	3
821	204319	86.194	1
821	205116	86.507	2
821	205600	86.689	3
821	206628	87.11	1
821	207152	87.344	2
821	207992	87.719	3
821	208433	87.915	1
821	209535	88.365	2
821	210149	88.641	3
821	210599	88.835	1
821	211342	89.135	2
821	212090	89.448	3
821	212619	89.668	1
821	213318	89.981	2
821	213991	90.262	3
821	214792	90.589	1
821	216082	91.165	2
821	216894	91.521	3
821	217595	91.819	1
821	218317	92.114	2
821	219140	92.446	3
822	0	0	0
823	0	0	0
